
OS:Version,
  {635ee614-aba1-4783-ac9d-6c6c7405dbab}, !- Handle
  1.3.5;                                  !- Version Identifier

OS:Construction,
  {67a9d98c-d980-431b-8428-a5b5823ce43b}, !- Handle
  ASHRAE 90.1-2004 ExtWall Mass ClimateZone 6, !- Name
  ,                                       !- Surface Rendering Name
  {6119e650-b1e5-47fc-a8c1-de694d2074fb}, !- Layer 1
  {55379cf3-0588-4b86-bf74-423688fff06a}, !- Layer 2
  {4703cfbf-0912-4b09-af04-54d19432ec52}, !- Layer 3
  {0263a8f1-21ae-4625-8c0f-f4421a33ceac}; !- Layer 4

OS:Material,
  {6119e650-b1e5-47fc-a8c1-de694d2074fb}, !- Handle
  1IN Stucco,                             !- Name
  Smooth,                                 !- Roughness
  0.0253,                                 !- Thickness {m}
  0.691799999999999,                      !- Conductivity {W/m-K}
  1858,                                   !- Density {kg/m3}
  836.999999999999,                       !- Specific Heat {J/kg-K}
  0.9,                                    !- Thermal Absorptance
  0.92,                                   !- Solar Absorptance
  0.92;                                   !- Visible Absorptance

OS:Material,
  {55379cf3-0588-4b86-bf74-423688fff06a}, !- Handle
  8IN CONCRETE HW RefBldg,                !- Name
  Rough,                                  !- Roughness
  0.2032,                                 !- Thickness {m}
  1.311,                                  !- Conductivity {W/m-K}
  2240,                                   !- Density {kg/m3}
  836.800000000001,                       !- Specific Heat {J/kg-K}
  0.9,                                    !- Thermal Absorptance
  0.7,                                    !- Solar Absorptance
  0.7;                                    !- Visible Absorptance

OS:Material,
  {4703cfbf-0912-4b09-af04-54d19432ec52}, !- Handle
  Mass NonRes Wall Insulation-1.69,       !- Name
  MediumRough,                            !- Roughness
  0.0623673293364368,                     !- Thickness {m}
  0.049,                                  !- Conductivity {W/m-K}
  265,                                    !- Density {kg/m3}
  836.800000000001,                       !- Specific Heat {J/kg-K}
  0.9,                                    !- Thermal Absorptance
  0.7,                                    !- Solar Absorptance
  0.7;                                    !- Visible Absorptance

OS:Material,
  {0263a8f1-21ae-4625-8c0f-f4421a33ceac}, !- Handle
  1/2IN Gypsum,                           !- Name
  Smooth,                                 !- Roughness
  0.0127,                                 !- Thickness {m}
  0.16,                                   !- Conductivity {W/m-K}
  784.9,                                  !- Density {kg/m3}
  830.000000000001,                       !- Specific Heat {J/kg-K}
  0.9,                                    !- Thermal Absorptance
  0.4,                                    !- Solar Absorptance
  0.4;                                    !- Visible Absorptance

OS:StandardsInformation:Construction,
  {cab64d36-f2ab-43de-8b2e-beaef923018b}, !- Handle
  {67a9d98c-d980-431b-8428-a5b5823ce43b}, !- Construction Name
  ExteriorWall,                           !- Intended Surface Type
  Mass;                                   !- Standards Construction Type

OS:Construction,
  {56c2c3b4-70f0-4f24-9c54-a3a4f139468a}, !- Handle
  ASHRAE 90.1-2004 ExtRoof IEAD ClimateZone 7, !- Name
  ,                                       !- Surface Rendering Name
  {30028f24-6411-4e4b-8838-199e50b88dd5}, !- Layer 1
  {178a578b-e7fe-4694-9fb7-1b4a3f9ffaee}, !- Layer 2
  {3ac19517-f998-49cf-a48b-4491fb351960}; !- Layer 3

OS:Material,
  {30028f24-6411-4e4b-8838-199e50b88dd5}, !- Handle
  Roof Membrane,                          !- Name
  VeryRough,                              !- Roughness
  0.0095,                                 !- Thickness {m}
  0.16,                                   !- Conductivity {W/m-K}
  1121.29,                                !- Density {kg/m3}
  1460,                                   !- Specific Heat {J/kg-K}
  0.9,                                    !- Thermal Absorptance
  0.7,                                    !- Solar Absorptance
  0.7;                                    !- Visible Absorptance

OS:Material,
  {178a578b-e7fe-4694-9fb7-1b4a3f9ffaee}, !- Handle
  IEAD NonRes Roof Insulation-2.79,       !- Name
  MediumRough,                            !- Roughness
  0.124663450809702,                      !- Thickness {m}
  0.049,                                  !- Conductivity {W/m-K}
  265,                                    !- Density {kg/m3}
  836.800000000001,                       !- Specific Heat {J/kg-K}
  0.9,                                    !- Thermal Absorptance
  0.7,                                    !- Solar Absorptance
  0.7;                                    !- Visible Absorptance

OS:Material,
  {3ac19517-f998-49cf-a48b-4491fb351960}, !- Handle
  Metal Decking,                          !- Name
  MediumSmooth,                           !- Roughness
  0.0015,                                 !- Thickness {m}
  45.006,                                 !- Conductivity {W/m-K}
  7680,                                   !- Density {kg/m3}
  418.4,                                  !- Specific Heat {J/kg-K}
  0.9,                                    !- Thermal Absorptance
  0.6,                                    !- Solar Absorptance
  0.6;                                    !- Visible Absorptance

OS:StandardsInformation:Construction,
  {f14c5490-fd61-4e43-b6c3-8331302b8839}, !- Handle
  {56c2c3b4-70f0-4f24-9c54-a3a4f139468a}, !- Construction Name
  ExteriorRoof,                           !- Intended Surface Type
  IEAD;                                   !- Standards Construction Type

OS:Construction,
  {d4a28686-bd99-4ab5-b126-807409b36fc2}, !- Handle
  ASHRAE 90.1-2004 ExtRoof Metal ClimateZone 2, !- Name
  ,                                       !- Surface Rendering Name
  {380ac33b-a953-4530-8e51-f0bcdc8e2fd5}, !- Layer 1
  {02fb1824-e4bd-4d31-9547-f73bd1123685}, !- Layer 2
  {3ac19517-f998-49cf-a48b-4491fb351960}; !- Layer 3

OS:Material,
  {380ac33b-a953-4530-8e51-f0bcdc8e2fd5}, !- Handle
  Metal Roofing,                          !- Name
  MediumSmooth,                           !- Roughness
  0.0015,                                 !- Thickness {m}
  45.006,                                 !- Conductivity {W/m-K}
  7680,                                   !- Density {kg/m3}
  418.4,                                  !- Specific Heat {J/kg-K}
  0.9,                                    !- Thermal Absorptance
  0.6,                                    !- Solar Absorptance
  0.6;                                    !- Visible Absorptance

OS:Material,
  {02fb1824-e4bd-4d31-9547-f73bd1123685}, !- Handle
  Metal Semi-Cond Roof Insulation-1.05,   !- Name
  MediumRough,                            !- Roughness
  0.0422673301906313,                     !- Thickness {m}
  0.049,                                  !- Conductivity {W/m-K}
  265,                                    !- Density {kg/m3}
  836.800000000001,                       !- Specific Heat {J/kg-K}
  0.9,                                    !- Thermal Absorptance
  0.7,                                    !- Solar Absorptance
  0.7;                                    !- Visible Absorptance

OS:StandardsInformation:Construction,
  {3bbc8b7e-4c1e-4620-803a-3f56c0844031}, !- Handle
  {d4a28686-bd99-4ab5-b126-807409b36fc2}, !- Construction Name
  ExteriorRoof,                           !- Intended Surface Type
  Metal;                                  !- Standards Construction Type

OS:Construction,
  {b9aa1649-b7a7-4bc6-a738-be853916be01}, !- Handle
  ASHRAE 90.1-2004 ExtWindow ClimateZone 3a-3b, !- Name
  ,                                       !- Surface Rendering Name
  {01528e8f-c3f9-4775-831e-4d610e716f90}; !- Layer 1

OS:WindowMaterial:SimpleGlazingSystem,
  {01528e8f-c3f9-4775-831e-4d610e716f90}, !- Handle
  Fixed Window 3.24/0.25/0.16,            !- Name
  3.23646,                                !- U-Factor {W/m2-K}
  0.25,                                   !- Solar Heat Gain Coefficient
  0.16;                                   !- Visible Transmittance

OS:StandardsInformation:Construction,
  {89b015d8-9371-4648-9c39-cb9a723fb952}, !- Handle
  {b9aa1649-b7a7-4bc6-a738-be853916be01}, !- Construction Name
  ExteriorWindow,                         !- Intended Surface Type
  ;                                       !- Standards Construction Type

OS:Construction,
  {04fc2062-3d33-4ccf-8c9d-d21319331503}, !- Handle
  ASHRAE 90.1-2004 ExtRoof IEAD ClimateZone 8, !- Name
  ,                                       !- Surface Rendering Name
  {30028f24-6411-4e4b-8838-199e50b88dd5}, !- Layer 1
  {b161d40f-06d1-49ba-872d-596fefef487e}, !- Layer 2
  {3ac19517-f998-49cf-a48b-4491fb351960}; !- Layer 3

OS:Material,
  {b161d40f-06d1-49ba-872d-596fefef487e}, !- Handle
  IEAD NonRes Roof Insulation-3.72,       !- Name
  MediumRough,                            !- Roughness
  0.170145232344671,                      !- Thickness {m}
  0.049,                                  !- Conductivity {W/m-K}
  265,                                    !- Density {kg/m3}
  836.800000000001,                       !- Specific Heat {J/kg-K}
  0.9,                                    !- Thermal Absorptance
  0.7,                                    !- Solar Absorptance
  0.7;                                    !- Visible Absorptance

OS:StandardsInformation:Construction,
  {634d10a9-77f3-4ee9-98e0-849ecdcce36e}, !- Handle
  {04fc2062-3d33-4ccf-8c9d-d21319331503}, !- Construction Name
  ExteriorRoof,                           !- Intended Surface Type
  IEAD;                                   !- Standards Construction Type

OS:Construction,
  {f5c196f2-7342-4756-bdd2-806b9b572390}, !- Handle
  ASHRAE 90.1-2004 ExtWall Mass ClimateZone alt-res 7, !- Name
  ,                                       !- Surface Rendering Name
  {6119e650-b1e5-47fc-a8c1-de694d2074fb}, !- Layer 1
  {55379cf3-0588-4b86-bf74-423688fff06a}, !- Layer 2
  {1d3fcefb-3dd0-4cde-956b-e9e873adf10f}, !- Layer 3
  {0263a8f1-21ae-4625-8c0f-f4421a33ceac}; !- Layer 4

OS:Material,
  {1d3fcefb-3dd0-4cde-956b-e9e873adf10f}, !- Handle
  Mass NonRes Wall Insulation-2.20,       !- Name
  MediumRough,                            !- Roughness
  0.0872609809472425,                     !- Thickness {m}
  0.049,                                  !- Conductivity {W/m-K}
  265,                                    !- Density {kg/m3}
  836.800000000001,                       !- Specific Heat {J/kg-K}
  0.9,                                    !- Thermal Absorptance
  0.7,                                    !- Solar Absorptance
  0.7;                                    !- Visible Absorptance

OS:StandardsInformation:Construction,
  {22b97445-1e45-4d07-9c30-4c2ddd08e992}, !- Handle
  {f5c196f2-7342-4756-bdd2-806b9b572390}, !- Construction Name
  ExteriorWall,                           !- Intended Surface Type
  Mass;                                   !- Standards Construction Type

OS:Construction,
  {a1d3606d-6ca0-470c-b1d9-b5c68f075d68}, !- Handle
  ASHRAE 90.1-2004 ExtWall SteelFrame ClimateZone alt-res 4-6, !- Name
  ,                                       !- Surface Rendering Name
  {68acfcdd-bcd7-4767-ab86-047636621495}, !- Layer 1
  {8fe353e9-7b74-4c31-8d4f-c01d49cf2fe7}, !- Layer 2
  {0263a8f1-21ae-4625-8c0f-f4421a33ceac}; !- Layer 3

OS:Material,
  {68acfcdd-bcd7-4767-ab86-047636621495}, !- Handle
  Wood Siding,                            !- Name
  MediumSmooth,                           !- Roughness
  0.01,                                   !- Thickness {m}
  0.11,                                   !- Conductivity {W/m-K}
  544.62,                                 !- Density {kg/m3}
  1210,                                   !- Specific Heat {J/kg-K}
  0.9,                                    !- Thermal Absorptance
  0.78,                                   !- Solar Absorptance
  0.78;                                   !- Visible Absorptance

OS:Material,
  {8fe353e9-7b74-4c31-8d4f-c01d49cf2fe7}, !- Handle
  Steel Frame NonRes Wall Insulation-2.75, !- Name
  MediumRough,                            !- Roughness
  0.119161363096001,                      !- Thickness {m}
  0.049,                                  !- Conductivity {W/m-K}
  265,                                    !- Density {kg/m3}
  836.800000000001,                       !- Specific Heat {J/kg-K}
  0.9,                                    !- Thermal Absorptance
  0.7,                                    !- Solar Absorptance
  0.7;                                    !- Visible Absorptance

OS:StandardsInformation:Construction,
  {1bb3d728-6579-4158-a2fa-46731619b9b7}, !- Handle
  {a1d3606d-6ca0-470c-b1d9-b5c68f075d68}, !- Construction Name
  ExteriorWall,                           !- Intended Surface Type
  SteelFramed;                            !- Standards Construction Type

OS:Construction,
  {ca639a59-2999-4cc4-bb1f-43de8d3d052e}, !- Handle
  ASHRAE 90.1-2004 ExtWall SteelFrame ClimateZone 7-8, !- Name
  ,                                       !- Surface Rendering Name
  {68acfcdd-bcd7-4767-ab86-047636621495}, !- Layer 1
  {8fe353e9-7b74-4c31-8d4f-c01d49cf2fe7}, !- Layer 2
  {0263a8f1-21ae-4625-8c0f-f4421a33ceac}; !- Layer 3

OS:StandardsInformation:Construction,
  {17c3b9c5-a5c4-48fc-8f02-cc96582f2155}, !- Handle
  {ca639a59-2999-4cc4-bb1f-43de8d3d052e}, !- Construction Name
  ExteriorWall,                           !- Intended Surface Type
  SteelFramed;                            !- Standards Construction Type

OS:Construction,
  {0fea1630-46f6-47b4-89de-8ce0a12b7297}, !- Handle
  ASHRAE 90.1-2004 ExtWindow ClimateZone 3c, !- Name
  ,                                       !- Surface Rendering Name
  {54ddc5e9-a037-485f-9c9b-9c69b8e75008}; !- Layer 1

OS:WindowMaterial:SimpleGlazingSystem,
  {54ddc5e9-a037-485f-9c9b-9c69b8e75008}, !- Handle
  Fixed Window 5.84/0.39/0.22,            !- Name
  5.84000000000002,                       !- U-Factor {W/m2-K}
  0.39,                                   !- Solar Heat Gain Coefficient
  0.22;                                   !- Visible Transmittance

OS:StandardsInformation:Construction,
  {db6d930b-cf90-4f4e-8dfb-fd137dd01d7b}, !- Handle
  {0fea1630-46f6-47b4-89de-8ce0a12b7297}, !- Construction Name
  ExteriorWindow,                         !- Intended Surface Type
  ;                                       !- Standards Construction Type

OS:Construction,
  {aecf28b2-528a-4031-8248-bf88d71f1148}, !- Handle
  ASHRAE 90.1-2004 ExtWall Mass ClimateZone alt-res 1-2, !- Name
  ,                                       !- Surface Rendering Name
  {6119e650-b1e5-47fc-a8c1-de694d2074fb}, !- Layer 1
  {55379cf3-0588-4b86-bf74-423688fff06a}, !- Layer 2
  {296e054a-6c06-48db-9733-6d2210d5db95}, !- Layer 3
  {0263a8f1-21ae-4625-8c0f-f4421a33ceac}; !- Layer 4

OS:Material,
  {296e054a-6c06-48db-9733-6d2210d5db95}, !- Handle
  Mass NonRes Wall Insulation-1.17,       !- Name
  MediumRough,                            !- Roughness
  0.0365394788793099,                     !- Thickness {m}
  0.049,                                  !- Conductivity {W/m-K}
  265,                                    !- Density {kg/m3}
  836.800000000001,                       !- Specific Heat {J/kg-K}
  0.9,                                    !- Thermal Absorptance
  0.7,                                    !- Solar Absorptance
  0.7;                                    !- Visible Absorptance

OS:StandardsInformation:Construction,
  {26cec31c-b9ce-4ec2-95f4-2cf72f70aa9e}, !- Handle
  {aecf28b2-528a-4031-8248-bf88d71f1148}, !- Construction Name
  ExteriorWall,                           !- Intended Surface Type
  Mass;                                   !- Standards Construction Type

OS:Construction,
  {df807951-c23d-4cbc-8322-693b4dab577c}, !- Handle
  Interior Window,                        !- Name
  ,                                       !- Surface Rendering Name
  {ff06cdb6-5beb-4113-b75b-a6b75a303ec2}; !- Layer 1

OS:WindowMaterial:Glazing,
  {ff06cdb6-5beb-4113-b75b-a6b75a303ec2}, !- Handle
  Clear 3mm,                              !- Name
  SpectralAverage,                        !- Optical Data Type
  ,                                       !- Window Glass Spectral Data Set Name
  0.00299999999999999,                    !- Thickness {m}
  0.837,                                  !- Solar Transmittance at Normal Incidence
  0.075,                                  !- Front Side Solar Reflectance at Normal Incidence
  0,                                      !- Back Side Solar Reflectance at Normal Incidence
  0.898,                                  !- Visible Transmittance at Normal Incidence
  0.081,                                  !- Front Side Visible Reflectance at Normal Incidence
  0,                                      !- Back Side Visible Reflectance at Normal Incidence
  0,                                      !- Infrared Transmittance at Normal Incidence
  0.84,                                   !- Front Side Infrared Hemispherical Emissivity
  0.84,                                   !- Back Side Infrared Hemispherical Emissivity
  0.9,                                    !- Conductivity {W/m-K}
  1,                                      !- Dirt Correction Factor for Solar and Visible Transmittance
  No;                                     !- Solar Diffusing

OS:StandardsInformation:Construction,
  {c65977dd-8aad-4bdf-94a5-3d678f375a3f}, !- Handle
  {df807951-c23d-4cbc-8322-693b4dab577c}, !- Construction Name
  InteriorWindow,                         !- Intended Surface Type
  ;                                       !- Standards Construction Type

OS:Construction,
  {3cc638ff-44a6-407d-b001-8cb5b5e084b3}, !- Handle
  ASHRAE 90.1-2004 ExtRoof IEAD ClimateZone 5-6 1, !- Name
  ,                                       !- Surface Rendering Name
  {30028f24-6411-4e4b-8838-199e50b88dd5}, !- Layer 1
  {f07c4553-a301-4af3-acea-1d13647ab6bd}, !- Layer 2
  {3ac19517-f998-49cf-a48b-4491fb351960}; !- Layer 3

OS:Material,
  {f07c4553-a301-4af3-acea-1d13647ab6bd}, !- Handle
  IEAD NonRes Roof Insulation-2.85,       !- Name
  MediumRough,                            !- Roughness
  0.127338688569477,                      !- Thickness {m}
  0.049,                                  !- Conductivity {W/m-K}
  265,                                    !- Density {kg/m3}
  836.800000000001,                       !- Specific Heat {J/kg-K}
  0.9,                                    !- Thermal Absorptance
  0.7,                                    !- Solar Absorptance
  0.7;                                    !- Visible Absorptance

OS:StandardsInformation:Construction,
  {a6e39dcc-13e5-401e-b411-0f84346301a1}, !- Handle
  {3cc638ff-44a6-407d-b001-8cb5b5e084b3}, !- Construction Name
  ExteriorRoof,                           !- Intended Surface Type
  IEAD;                                   !- Standards Construction Type

OS:Construction,
  {2168d0cb-ae7a-44f3-87bc-09666c6920bc}, !- Handle
  ASHRAE 90.1-2004 ExtWall WoodFrame ClimateZone 1-7, !- Name
  ,                                       !- Surface Rendering Name
  {68acfcdd-bcd7-4767-ab86-047636621495}, !- Layer 1
  {9b8ba5bc-f91e-45bf-a8f1-e11a9b4cf4bb}, !- Layer 2
  {0263a8f1-21ae-4625-8c0f-f4421a33ceac}; !- Layer 3

OS:Material,
  {9b8ba5bc-f91e-45bf-a8f1-e11a9b4cf4bb}, !- Handle
  Wood Frame NonRes Wall Insulation-1.98, !- Name
  MediumRough,                            !- Roughness
  0.0812847864409826,                     !- Thickness {m}
  0.049,                                  !- Conductivity {W/m-K}
  265,                                    !- Density {kg/m3}
  836.800000000001,                       !- Specific Heat {J/kg-K}
  0.9,                                    !- Thermal Absorptance
  0.7,                                    !- Solar Absorptance
  0.7;                                    !- Visible Absorptance

OS:StandardsInformation:Construction,
  {90cf5a60-7472-49ab-bb9f-a7946d132760}, !- Handle
  {2168d0cb-ae7a-44f3-87bc-09666c6920bc}, !- Construction Name
  ExteriorWall,                           !- Intended Surface Type
  WoodFramed;                             !- Standards Construction Type

OS:Construction,
  {e18eb7ec-8f63-4496-8a1b-0f2145dd28f1}, !- Handle
  ASHRAE 90.1-2004 ExtWall Mass ClimateZone alt-res 4, !- Name
  ,                                       !- Surface Rendering Name
  {6119e650-b1e5-47fc-a8c1-de694d2074fb}, !- Layer 1
  {55379cf3-0588-4b86-bf74-423688fff06a}, !- Layer 2
  {4703cfbf-0912-4b09-af04-54d19432ec52}, !- Layer 3
  {0263a8f1-21ae-4625-8c0f-f4421a33ceac}; !- Layer 4

OS:StandardsInformation:Construction,
  {efb05866-f5ff-4257-867b-1a8540f71fd8}, !- Handle
  {e18eb7ec-8f63-4496-8a1b-0f2145dd28f1}, !- Construction Name
  ExteriorWall,                           !- Intended Surface Type
  Mass;                                   !- Standards Construction Type

OS:Construction,
  {2d2f2ed1-2124-4200-8100-eb56f88c34fd}, !- Handle
  ASHRAE 90.1-2004 ExtWall Mass ClimateZone 3-4, !- Name
  ,                                       !- Surface Rendering Name
  {6119e650-b1e5-47fc-a8c1-de694d2074fb}, !- Layer 1
  {55379cf3-0588-4b86-bf74-423688fff06a}, !- Layer 2
  {296e054a-6c06-48db-9733-6d2210d5db95}, !- Layer 3
  {0263a8f1-21ae-4625-8c0f-f4421a33ceac}; !- Layer 4

OS:StandardsInformation:Construction,
  {cf746e78-8ca1-4f62-ba33-0e7388a203c2}, !- Handle
  {2d2f2ed1-2124-4200-8100-eb56f88c34fd}, !- Construction Name
  ExteriorWall,                           !- Intended Surface Type
  Mass;                                   !- Standards Construction Type

OS:Construction,
  {b0d93ef6-7226-43de-a9ce-3936a0cb68b5}, !- Handle
  ASHRAE 90.1-2004 ExtRoof IEAD ClimateZone 1-4, !- Name
  ,                                       !- Surface Rendering Name
  {30028f24-6411-4e4b-8838-199e50b88dd5}, !- Layer 1
  {178a578b-e7fe-4694-9fb7-1b4a3f9ffaee}, !- Layer 2
  {3ac19517-f998-49cf-a48b-4491fb351960}; !- Layer 3

OS:StandardsInformation:Construction,
  {f61a2b55-9b48-4a77-9fa5-8240ad622765}, !- Handle
  {b0d93ef6-7226-43de-a9ce-3936a0cb68b5}, !- Construction Name
  ExteriorRoof,                           !- Intended Surface Type
  IEAD;                                   !- Standards Construction Type

OS:Construction,
  {c9136c6c-97bc-40ab-be39-86d8ddf13584}, !- Handle
  ASHRAE 90.1-2004 ExtWindow ClimateZone alt-ware 1-8, !- Name
  ,                                       !- Surface Rendering Name
  {d57dc8f4-c370-4edc-abb8-d440f70d77a7}; !- Layer 1

OS:WindowMaterial:SimpleGlazingSystem,
  {d57dc8f4-c370-4edc-abb8-d440f70d77a7}, !- Handle
  Fixed Window 5.84/0.70/0.60,            !- Name
  5.84000000000002,                       !- U-Factor {W/m2-K}
  0.7,                                    !- Solar Heat Gain Coefficient
  0.6;                                    !- Visible Transmittance

OS:StandardsInformation:Construction,
  {76b60829-32a3-458b-b50e-9bb10dbb284e}, !- Handle
  {c9136c6c-97bc-40ab-be39-86d8ddf13584}, !- Construction Name
  ExteriorWindow,                         !- Intended Surface Type
  ;                                       !- Standards Construction Type

OS:Construction,
  {c2667050-0b9d-42d5-af8b-2bd870d9a02d}, !- Handle
  ASHRAE 90.1-2004 ExtWall Mass ClimateZone 8, !- Name
  ,                                       !- Surface Rendering Name
  {6119e650-b1e5-47fc-a8c1-de694d2074fb}, !- Layer 1
  {55379cf3-0588-4b86-bf74-423688fff06a}, !- Layer 2
  {1d3fcefb-3dd0-4cde-956b-e9e873adf10f}, !- Layer 3
  {0263a8f1-21ae-4625-8c0f-f4421a33ceac}; !- Layer 4

OS:StandardsInformation:Construction,
  {c04711d3-e1ac-41ea-9d82-cfb0636d65c7}, !- Handle
  {c2667050-0b9d-42d5-af8b-2bd870d9a02d}, !- Construction Name
  ExteriorWall,                           !- Intended Surface Type
  Mass;                                   !- Standards Construction Type

OS:Construction,
  {522a90a6-b899-4bbe-8504-b99fc8036e06}, !- Handle
  ASHRAE 90.1-2004 ExtWindow ClimateZone alt-res 8, !- Name
  ,                                       !- Surface Rendering Name
  {294dfb44-15ad-4495-8f7c-a4a5662e2b57}; !- Layer 1

OS:WindowMaterial:SimpleGlazingSystem,
  {294dfb44-15ad-4495-8f7c-a4a5662e2b57}, !- Handle
  Fixed Window 2.67/0.30/0.21,            !- Name
  2.66866,                                !- U-Factor {W/m2-K}
  0.49,                                   !- Solar Heat Gain Coefficient
  0.38;                                   !- Visible Transmittance

OS:StandardsInformation:Construction,
  {3bfe8e64-102b-4713-8849-a36097108513}, !- Handle
  {522a90a6-b899-4bbe-8504-b99fc8036e06}, !- Construction Name
  ExteriorWindow,                         !- Intended Surface Type
  ;                                       !- Standards Construction Type

OS:Construction,
  {0fa4fd77-d5bf-4d64-a4d6-046efe1c4b86}, !- Handle
  ASHRAE 90.1-2004 ExtWindow ClimateZone alt-res 3c, !- Name
  ,                                       !- Surface Rendering Name
  {61f8ae1a-ee13-4ab0-8ca4-46133bb4fdd4}; !- Layer 1

OS:WindowMaterial:SimpleGlazingSystem,
  {61f8ae1a-ee13-4ab0-8ca4-46133bb4fdd4}, !- Handle
  Fixed Window 5.84/0.61/0.47,            !- Name
  5.84000000000002,                       !- U-Factor {W/m2-K}
  0.61,                                   !- Solar Heat Gain Coefficient
  0.47;                                   !- Visible Transmittance

OS:StandardsInformation:Construction,
  {862fb988-2720-4cda-be13-04e458cf17eb}, !- Handle
  {0fa4fd77-d5bf-4d64-a4d6-046efe1c4b86}, !- Construction Name
  ExteriorWindow,                         !- Intended Surface Type
  ;                                       !- Standards Construction Type

OS:Construction,
  {21761d39-072c-4e7c-9af8-40fa3fa0e171}, !- Handle
  ASHRAE 90.1-2004 ExtRoof Metal ClimateZone 7, !- Name
  ,                                       !- Surface Rendering Name
  {380ac33b-a953-4530-8e51-f0bcdc8e2fd5}, !- Layer 1
  {be973f10-c1ae-4e3e-b57d-eebd822048a4}, !- Layer 2
  {3ac19517-f998-49cf-a48b-4491fb351960}; !- Layer 3

OS:Material,
  {be973f10-c1ae-4e3e-b57d-eebd822048a4}, !- Handle
  Metal Semi-Cond Roof Insulation-1.81,   !- Name
  MediumRough,                            !- Roughness
  0.0795588880494838,                     !- Thickness {m}
  0.049,                                  !- Conductivity {W/m-K}
  265,                                    !- Density {kg/m3}
  836.800000000001,                       !- Specific Heat {J/kg-K}
  0.9,                                    !- Thermal Absorptance
  0.7,                                    !- Solar Absorptance
  0.7;                                    !- Visible Absorptance

OS:StandardsInformation:Construction,
  {282e1081-243b-4aba-9fd9-52a41a68f422}, !- Handle
  {21761d39-072c-4e7c-9af8-40fa3fa0e171}, !- Construction Name
  ExteriorRoof,                           !- Intended Surface Type
  Metal;                                  !- Standards Construction Type

OS:Construction,
  {58ad2640-4603-4f0a-97e2-643e6b685882}, !- Handle
  ASHRAE 90.1-2004 ExtWindow ClimateZone alt-resH 3a-3b, !- Name
  ,                                       !- Surface Rendering Name
  {6a37c667-2394-4b0e-8be9-5c013a8b9ed4}; !- Layer 1

OS:WindowMaterial:SimpleGlazingSystem,
  {6a37c667-2394-4b0e-8be9-5c013a8b9ed4}, !- Handle
  Fixed Window 3.24/0.39/0.31,            !- Name
  3.23646,                                !- U-Factor {W/m2-K}
  0.39,                                   !- Solar Heat Gain Coefficient
  0.31;                                   !- Visible Transmittance

OS:StandardsInformation:Construction,
  {64ce7de4-1625-4baf-886e-106818f62680}, !- Handle
  {58ad2640-4603-4f0a-97e2-643e6b685882}, !- Construction Name
  ExteriorWindow,                         !- Intended Surface Type
  ;                                       !- Standards Construction Type

OS:Construction,
  {aafb0365-14b4-4937-aa33-961c7abee217}, !- Handle
  ASHRAE 90.1-2004 AtticFloor ClimateZone 1-5, !- Name
  ,                                       !- Surface Rendering Name
  {0263a8f1-21ae-4625-8c0f-f4421a33ceac}, !- Layer 1
  {59c87b55-e1cd-496a-9aef-17a749c7a115}, !- Layer 2
  {0263a8f1-21ae-4625-8c0f-f4421a33ceac}; !- Layer 3

OS:Material,
  {59c87b55-e1cd-496a-9aef-17a749c7a115}, !- Handle
  AtticFloor NonRes Insulation-5.18,      !- Name
  MediumRough,                            !- Roughness
  0.302609558350618,                      !- Thickness {m}
  0.049,                                  !- Conductivity {W/m-K}
  265,                                    !- Density {kg/m3}
  836.800000000001,                       !- Specific Heat {J/kg-K}
  0.9,                                    !- Thermal Absorptance
  0.7,                                    !- Solar Absorptance
  0.7;                                    !- Visible Absorptance

OS:StandardsInformation:Construction,
  {26f3b3ab-1f7c-47aa-b2e2-09209494ed45}, !- Handle
  {aafb0365-14b4-4937-aa33-961c7abee217}, !- Construction Name
  AtticFloor,                             !- Intended Surface Type
  WoodFramed;                             !- Standards Construction Type

OS:Construction,
  {43248f3b-e46e-4199-84d2-836d28d5f658}, !- Handle
  ASHRAE 90.1-2004 ExtWall Mass ClimateZone 1-2, !- Name