
OS:Version,
  {7a8d8635-5ef9-4284-b3dc-7ee3e61cf193}, !- Handle
  1.7.0;                                  !- Version Identifier

OS:BuildingStory,
  {366a2916-30f2-4d31-825e-38e7a574eca5}, !- Handle
  Cell:Story 1,                           !- Name
  0,                                      !- Nominal Z Coordinate {m}
  1.2375,                                 !- Nominal Floor to Floor Height {m}
  ,                                       !- Default Construction Set Name
  ,                                       !- Default Schedule Set Name
  ;                                       !- Group Rendering Name

OS:Space,
  {5ec2936c-9d8b-417b-9ba1-e9ad8720845e}, !- Handle
  0 Core Space,                           !- Name
  ,                                       !- Space Type Name
  ,                                       !- Default Construction Set Name
  ,                                       !- Default Schedule Set Name
  -0,                                     !- Direction of Relative North {deg}
  31.05,                                  !- X Origin {m}
  19.92,                                  !- Y Origin {m}
  0,                                      !- Z Origin {m}
  {366a2916-30f2-4d31-825e-38e7a574eca5}, !- Building Story Name
  {7cea39d1-0f50-4caa-bd18-571b2edd589a}; !- Thermal Zone Name

OS:Surface,
  {2457ff9e-e10e-4de2-9dad-98b2b2e8a0f9}, !- Handle
  Surface 1,                              !- Name
  Floor,                                  !- Surface Type
  ,                                       !- Construction Name
  {5ec2936c-9d8b-417b-9ba1-e9ad8720845e}, !- Space Name
  Ground,                                 !- Outside Boundary Condition
  ,                                       !- Outside Boundary Condition Object
  NoSun,                                  !- Sun Exposure
  NoWind,                                 !- Wind Exposure
  ,                                       !- View Factor to Ground
  ,                                       !- Number of Vertices
  0, 0, 0,                                !- X,Y,Z Vertex 1 {m}
  0.191301958156799, -11.0641796316725, 0, !- X,Y,Z Vertex 2 {m}
  0.382603916313599, -22.128359263345, 0, !- X,Y,Z Vertex 3 {m}
  0.573905874470398, -33.1925388950175, 0, !- X,Y,Z Vertex 4 {m}
  0.765207832627198, -44.25671852669, 0,  !- X,Y,Z Vertex 5 {m}
  0.956509790784001, -55.3208981583625, 0, !- X,Y,Z Vertex 6 {m}
  1.1478117489408, -66.385077790035, 0,   !- X,Y,Z Vertex 7 {m}
  -13.010072150553, -66.6298705359496, 0, !- X,Y,Z Vertex 8 {m}
  -27.1679560500469, -66.8746632818642, 0, !- X,Y,Z Vertex 9 {m}
  -27.3807791144722, -54.5657844954032, 0, !- X,Y,Z Vertex 10 {m}
  -27.5936021788975, -42.2569057089421, 0, !- X,Y,Z Vertex 11 {m}
  -33.4852215911692, -42.3587730292318, 0, !- X,Y,Z Vertex 12 {m}
  -39.376841003441, -42.4606403495215, 0, !- X,Y,Z Vertex 13 {m}
  -39.5109474910817, -34.7044297841612, 0, !- X,Y,Z Vertex 14 {m}
  -39.6450539787225, -26.9482192188009, 0, !- X,Y,Z Vertex 15 {m}
  -33.7534345664507, -26.8463518985112, 0, !- X,Y,Z Vertex 16 {m}
  -27.861815154179, -26.7444845782215, 0, !- X,Y,Z Vertex 17 {m}
  -28.0887914765834, -13.6170350350254, 0, !- X,Y,Z Vertex 18 {m}
  -28.3157677989877, -0.489585491829303, 0, !- X,Y,Z Vertex 19 {m}
  -14.1578838994939, -0.244792745914602, 0; !- X,Y,Z Vertex 20 {m}

OS:Surface,
  {2f694979-26ec-4bfd-b23a-5473cb118eef}, !- Handle
  Surface 2,                              !- Name
  Wall,                                   !- Surface Type
  ,                                       !- Construction Name
  {5ec2936c-9d8b-417b-9ba1-e9ad8720845e}, !- Space Name
  Outdoors,                               !- Outside Boundary Condition
  ,                                       !- Outside Boundary Condition Object
  SunExposed,                             !- Sun Exposure
  WindExposed,                            !- Wind Exposure
  ,                                       !- View Factor to Ground
  ,                                       !- Number of Vertices
  0.191301958156799, -11.0641796316725, 1.2375, !- X,Y,Z Vertex 1 {m}
  0.191301958156799, -11.0641796316725, 0, !- X,Y,Z Vertex 2 {m}
  0, 0, 0,                                !- X,Y,Z Vertex 3 {m}
  0, 0, 1.2375;                           !- X,Y,Z Vertex 4 {m}

OS:Surface,
  {04d27f24-4424-4d7e-8375-28ba31fe47bc}, !- Handle
  Surface 3,                              !- Name
  Wall,                                   !- Surface Type
  ,                                       !- Construction Name
  {5ec2936c-9d8b-417b-9ba1-e9ad8720845e}, !- Space Name
  Outdoors,                               !- Outside Boundary Condition
  ,                                       !- Outside Boundary Condition Object
  SunExposed,                             !- Sun Exposure
  WindExposed,                            !- Wind Exposure
  ,                                       !- View Factor to Ground
  ,                                       !- Number of Vertices
  0.382603916313599, -22.128359263345, 1.2375, !- X,Y,Z Vertex 1 {m}
  0.382603916313599, -22.128359263345, 0, !- X,Y,Z Vertex 2 {m}
  0.191301958156799, -11.0641796316725, 0, !- X,Y,Z Vertex 3 {m}
  0.191301958156799, -11.0641796316725, 1.2375; !- X,Y,Z Vertex 4 {m}

OS:Surface,
  {e5ac5ba9-1429-4cf8-9b62-96148db25a81}, !- Handle
  Surface 4,                              !- Name
  Wall,                                   !- Surface Type
  ,                                       !- Construction Name
  {5ec2936c-9d8b-417b-9ba1-e9ad8720845e}, !- Space Name
  Outdoors,                               !- Outside Boundary Condition
  ,                                       !- Outside Boundary Condition Object
  SunExposed,                             !- Sun Exposure
  WindExposed,                            !- Wind Exposure
  ,                                       !- View Factor to Ground
  ,                                       !- Number of Vertices
  0.573905874470398, -33.1925388950175, 1.2375, !- X,Y,Z Vertex 1 {m}
  0.573905874470398, -33.1925388950175, 0, !- X,Y,Z Vertex 2 {m}
  0.382603916313599, -22.128359263345, 0, !- X,Y,Z Vertex 3 {m}
  0.382603916313599, -22.128359263345, 1.2375; !- X,Y,Z Vertex 4 {m}

OS:Surface,
  {25d23b8f-5134-46c0-9a90-97e278d2ad3e}, !- Handle
  Surface 5,                              !- Name
  Wall,                                   !- Surface Type
  ,                                       !- Construction Name
  {5ec2936c-9d8b-417b-9ba1-e9ad8720845e}, !- Space Name
  Outdoors,                               !- Outside Boundary Condition
  ,                                       !- Outside Boundary Condition Object
  SunExposed,                             !- Sun Exposure
  WindExposed,                            !- Wind Exposure
  ,                                       !- View Factor to Ground
  ,                                       !- Number of Vertices
  0.765207832627198, -44.25671852669, 1.2375, !- X,Y,Z Vertex 1 {m}
  0.765207832627198, -44.25671852669, 0,  !- X,Y,Z Vertex 2 {m}
  0.573905874470398, -33.1925388950175, 0, !- X,Y,Z Vertex 3 {m}
  0.573905874470398, -33.1925388950175, 1.2375; !- X,Y,Z Vertex 4 {m}

OS:Surface,
  {4d6af832-6028-4722-bcc1-74e15345d17e}, !- Handle
  Surface 6,                              !- Name
  Wall,                                   !- Surface Type
  ,                                       !- Construction Name
  {5ec2936c-9d8b-417b-9ba1-e9ad8720845e}, !- Space Name
  Outdoors,                               !- Outside Boundary Condition
  ,                                       !- Outside Boundary Condition Object
  SunExposed,                             !- Sun Exposure
  WindExposed,                            !- Wind Exposure
  ,                                       !- View Factor to Ground
  ,                                       !- Number of Vertices
  0.956509790784001, -55.3208981583625, 1.2375, !- X,Y,Z Vertex 1 {m}
  0.956509790784001, -55.3208981583625, 0, !- X,Y,Z Vertex 2 {m}
  0.765207832627198, -44.25671852669, 0,  !- X,Y,Z Vertex 3 {m}
  0.765207832627198, -44.25671852669, 1.2375; !- X,Y,Z Vertex 4 {m}

OS:Surface,
  {017d7882-8273-445e-a9d2-ad095f3ed801}, !- Handle
  Surface 7,                              !- Name
  Wall,                                   !- Surface Type
  ,                                       !- Construction Name
  {5ec2936c-9d8b-417b-9ba1-e9ad8720845e}, !- Space Name
  Outdoors,                               !- Outside Boundary Condition
  ,                                       !- Outside Boundary Condition Object
  SunExposed,                             !- Sun Exposure
  WindExposed,                            !- Wind Exposure
  ,                                       !- View Factor to Ground
  ,                                       !- Number of Vertices
  1.1478117489408, -66.385077790035, 1.2375, !- X,Y,Z Vertex 1 {m}
  1.1478117489408, -66.385077790035, 0,   !- X,Y,Z Vertex 2 {m}
  0.956509790784001, -55.3208981583625, 0, !- X,Y,Z Vertex 3 {m}
  0.956509790784001, -55.3208981583625, 1.2375; !- X,Y,Z Vertex 4 {m}

OS:Surface,
  {1059d928-b3bc-49de-a07a-b9d8811ebcfe}, !- Handle
  Surface 8,                              !- Name
  Wall,                                   !- Surface Type
  ,                                       !- Construction Name
  {5ec2936c-9d8b-417b-9ba1-e9ad8720845e}, !- Space Name
  Outdoors,                               !- Outside Boundary Condition
  ,                                       !- Outside Boundary Condition Object
  SunExposed,                             !- Sun Exposure
  WindExposed,                            !- Wind Exposure
  ,                                       !- View Factor to Ground
  ,                                       !- Number of Vertices
  -13.010072150553, -66.6298705359496, 1.2375, !- X,Y,Z Vertex 1 {m}
  -13.010072150553, -66.6298705359496, 0, !- X,Y,Z Vertex 2 {m}
  1.1478117489408, -66.385077790035, 0,   !- X,Y,Z Vertex 3 {m}
  1.1478117489408, -66.385077790035, 1.2375; !- X,Y,Z Vertex 4 {m}

OS:Surface,
  {eed5b6d4-51da-4569-b5e8-e0b34a61969d}, !- Handle
  Surface 9,                              !- Name
  Wall,                                   !- Surface Type
  ,                                       !- Construction Name
  {5ec2936c-9d8b-417b-9ba1-e9ad8720845e}, !- Space Name
  Outdoors,                               !- Outside Boundary Condition
  ,                                       !- Outside Boundary Condition Object
  SunExposed,                             !- Sun Exposure
  WindExposed,                            !- Wind Exposure
  ,                                       !- View Factor to Ground
  ,                                       !- Number of Vertices
  -27.1679560500469, -66.8746632818642, 1.2375, !- X,Y,Z Vertex 1 {m}
  -27.1679560500469, -66.8746632818642, 0, !- X,Y,Z Vertex 2 {m}
  -13.010072150553, -66.6298705359496, 0, !- X,Y,Z Vertex 3 {m}
  -13.010072150553, -66.6298705359496, 1.2375; !- X,Y,Z Vertex 4 {m}

OS:Surface,
  {3d4400e5-ba7c-4dd8-82f8-e82095785c10}, !- Handle
  Surface 10,                             !- Name
  Wall,                                   !- Surface Type
  ,                                       !- Construction Name
  {5ec2936c-9d8b-417b-9ba1-e9ad8720845e}, !- Space Name
  Outdoors,                               !- Outside Boundary Condition
  ,                                       !- Outside Boundary Condition Object
  SunExposed,                             !- Sun Exposure
  WindExposed,                            !- Wind Exposure
  ,                                       !- View Factor to Ground
  ,                                       !- Number of Vertices
  -27.3807791144722, -54.5657844954032, 1.2375, !- X,Y,Z Vertex 1 {m}
  -27.3807791144722, -54.5657844954032, 0, !- X,Y,Z Vertex 2 {m}
  -27.1679560500469, -66.8746632818642, 0, !- X,Y,Z Vertex 3 {m}
  -27.1679560500469, -66.8746632818642, 1.2375; !- X,Y,Z Vertex 4 {m}

OS:Surface,
  {8204a3c0-2703-40c8-b915-9c308f420c30}, !- Handle
  Surface 11,                             !- Name
  Wall,                                   !- Surface Type
  ,                                       !- Construction Name
  {5ec2936c-9d8b-417b-9ba1-e9ad8720845e}, !- Space Name
  Outdoors,                               !- Outside Boundary Condition
  ,                                       !- Outside Boundary Condition Object
  SunExposed,                             !- Sun Exposure
  WindExposed,                            !- Wind Exposure
  ,                                       !- View Factor to Ground
  ,                                       !- Number of Vertices
  -27.5936021788975, -42.2569057089421, 1.2375, !- X,Y,Z Vertex 1 {m}
  -27.5936021788975, -42.2569057089421, 0, !- X,Y,Z Vertex 2 {m}
  -27.3807791144722, -54.5657844954032, 0, !- X,Y,Z Vertex 3 {m}
  -27.3807791144722, -54.5657844954032, 1.2375; !- X,Y,Z Vertex 4 {m}

OS:Surface,
  {a56192b6-4fca-4e39-a2ae-6031126e1840}, !- Handle
  Surface 12,                             !- Name
  Wall,                                   !- Surface Type
  ,                                       !- Construction Name
  {5ec2936c-9d8b-417b-9ba1-e9ad8720845e}, !- Space Name
  Outdoors,                               !- Outside Boundary Condition
  ,                                       !- Outside Boundary Condition Object
  SunExposed,                             !- Sun Exposure
  WindExposed,                            !- Wind Exposure
  ,                                       !- View Factor to Ground
  ,                                       !- Number of Vertices
  -33.4852215911692, -42.3587730292318, 1.2375, !- X,Y,Z Vertex 1 {m}
  -33.4852215911692, -42.3587730292318, 0, !- X,Y,Z Vertex 2 {m}
  -27.5936021788975, -42.2569057089421, 0, !- X,Y,Z Vertex 3 {m}
  -27.5936021788975, -42.2569057089421, 1.2375; !- X,Y,Z Vertex 4 {m}

OS:Surface,
  {adf34de8-3ea3-418e-b337-85b021432201}, !- Handle
  Surface 13,                             !- Name
  Wall,                                   !- Surface Type
  ,                                       !- Construction Name
  {5ec2936c-9d8b-417b-9ba1-e9ad8720845e}, !- Space Name
  Outdoors,                               !- Outside Boundary Condition
  ,                                       !- Outside Boundary Condition Object
  SunExposed,                             !- Sun Exposure
  WindExposed,                            !- Wind Exposure
  ,                                       !- View Factor to Ground
  ,                                       !- Number of Vertices
  -39.376841003441, -42.4606403495215, 1.2375, !- X,Y,Z Vertex 1 {m}
  -39.376841003441, -42.4606403495215, 0, !- X,Y,Z Vertex 2 {m}
  -33.4852215911692, -42.3587730292318, 0, !- X,Y,Z Vertex 3 {m}
  -33.4852215911692, -42.3587730292318, 1.2375; !- X,Y,Z Vertex 4 {m}

OS:Surface,
  {d5d2828e-cd5e-487f-874f-8bb6552949ef}, !- Handle
  Surface 14,                             !- Name
  Wall,                                   !- Surface Type
  ,                                       !- Construction Name
  {5ec2936c-9d8b-417b-9ba1-e9ad8720845e}, !- Space Name
  Outdoors,                               !- Outside Boundary Condition
  ,                                       !- Outside Boundary Condition Object
  SunExposed,                             !- Sun Exposure
  WindExposed,                            !- Wind Exposure
  ,                                       !- View Factor to Ground
  ,                                       !- Number of Vertices
  -39.5109474910817, -34.7044297841612, 1.2375, !- X,Y,Z Vertex 1 {m}
  -39.5109474910817, -34.7044297841612, 0, !- X,Y,Z Vertex 2 {m}
  -39.376841003441, -42.4606403495215, 0, !- X,Y,Z Vertex 3 {m}
  -39.376841003441, -42.4606403495215, 1.2375; !- X,Y,Z Vertex 4 {m}

OS:Surface,
  {1dfbf860-61a3-466a-b7ef-a5bfb23a963b}, !- Handle
  Surface 15,                             !- Name
  Wall,                                   !- Surface Type
  ,                                       !- Construction Name
  {5ec2936c-9d8b-417b-9ba1-e9ad8720845e}, !- Space Name
  Outdoors,                               !- Outside Boundary Condition
  ,                                       !- Outside Boundary Condition Object
  SunExposed,                             !- Sun Exposure
  WindExposed,                            !- Wind Exposure
  ,                                       !- View Factor to Ground
  ,                                       !- Number of Vertices
  -39.6450539787225, -26.9482192188009, 1.2375, !- X,Y,Z Vertex 1 {m}
  -39.6450539787225, -26.9482192188009, 0, !- X,Y,Z Vertex 2 {m}
  -39.5109474910817, -34.7044297841612, 0, !- X,Y,Z Vertex 3 {m}
  -39.5109474910817, -34.7044297841612, 1.2375; !- X,Y,Z Vertex 4 {m}

OS:Surface,
  {1766c72a-a5fb-4a00-8e44-313823d066cf}, !- Handle
  Surface 16,                             !- Name
  Wall,                                   !- Surface Type
  ,                                       !- Construction Name
  {5ec2936c-9d8b-417b-9ba1-e9ad8720845e}, !- Space Name
  Outdoors,                               !- Outside Boundary Condition
  ,                                       !- Outside Boundary Condition Object
  SunExposed,                             !- Sun Exposure
  WindExposed,                            !- Wind Exposure
  ,                                       !- View Factor to Ground
  ,                                       !- Number of Vertices
  -33.7534345664507, -26.8463518985112, 1.2375, !- X,Y,Z Vertex 1 {m}
  -33.7534345664507, -26.8463518985112, 0, !- X,Y,Z Vertex 2 {m}
  -39.6450539787225, -26.9482192188009, 0, !- X,Y,Z Vertex 3 {m}
  -39.6450539787225, -26.9482192188009, 1.2375; !- X,Y,Z Vertex 4 {m}

OS:Surface,
  {555c5840-2a6f-4dbc-8bcc-574771e5f537}, !- Handle
  Surface 17,                             !- Name
  Wall,                                   !- Surface Type
  ,                                       !- Construction Name
  {5ec2936c-9d8b-417b-9ba1-e9ad8720845e}, !- Space Name
  Outdoors,                               !- Outside Boundary Condition
  ,                                       !- Outside Boundary Condition Object
  SunExposed,                             !- Sun Exposure
  WindExposed,                            !- Wind Exposure
  ,                                       !- View Factor to Ground
  ,                                       !- Number of Vertices
  -27.861815154179, -26.7444845782215, 1.2375, !- X,Y,Z Vertex 1 {m}
  -27.861815154179, -26.7444845782215, 0, !- X,Y,Z Vertex 2 {m}
  -33.7534345664507, -26.8463518985112, 0, !- X,Y,Z Vertex 3 {m}
  -33.7534345664507, -26.8463518985112, 1.2375; !- X,Y,Z Vertex 4 {m}

OS:Surface,
  {12633b3a-bbe2-4c21-a54f-c3e5a4e6387b}, !- Handle
  Surface 18,                             !- Name
  Wall,                                   !- Surface Type
  ,                                       !- Construction Name
  {5ec2936c-9d8b-417b-9ba1-e9ad8720845e}, !- Space Name
  Outdoors,                               !- Outside Boundary Condition
  ,                                       !- Outside Boundary Condition Object
  SunExposed,                             !- Sun Exposure
  WindExposed,                            !- Wind Exposure
  ,                                       !- View Factor to Ground
  ,                                       !- Number of Vertices
  -28.0887914765834, -13.6170350350254, 1.2375, !- X,Y,Z Vertex 1 {m}
  -28.0887914765834, -13.6170350350254, 0, !- X,Y,Z Vertex 2 {m}
  -27.861815154179, -26.7444845782215, 0, !- X,Y,Z Vertex 3 {m}
  -27.861815154179, -26.7444845782215, 1.2375; !- X,Y,Z Vertex 4 {m}

OS:Surface,
  {b0c341e1-2549-43cb-b00e-15c8e256ef79}, !- Handle
  Surface 19,                             !- Name
  Wall,                                   !- Surface Type
  ,                                       !- Construction Name
  {5ec2936c-9d8b-417b-9ba1-e9ad8720845e}, !- Space Name
  Outdoors,                               !- Outside Boundary Condition
  ,                                       !- Outside Boundary Condition Object
  SunExposed,                             !- Sun Exposure
  WindExposed,                            !- Wind Exposure
  ,                                       !- View Factor to Ground
  ,                                       !- Number of Vertices
  -28.3157677989877, -0.489585491829303, 1.2375, !- X,Y,Z Vertex 1 {m}
  -28.3157677989877, -0.489585491829303, 0, !- X,Y,Z Vertex 2 {m}
  -28.0887914765834, -13.6170350350254, 0, !- X,Y,Z Vertex 3 {m}
  -28.0887914765834, -13.6170350350254, 1.2375; !- X,Y,Z Vertex 4 {m}

OS:Surface,
  {0396944e-ba40-4a3e-a3d1-20ae862beb5e}, !- Handle
  Surface 20,                             !- Name
  Wall,                                   !- Surface Type
  ,                                       !- Construction Name
  {5ec2936c-9d8b-417b-9ba1-e9ad8720845e}, !- Space Name
  Outdoors,                               !- Outside Boundary Condition
  ,                                       !- Outside Boundary Condition Object
  SunExposed,                             !- Sun Exposure
  WindExposed,                            !- Wind Exposure
  ,                                       !- View Factor to Ground
  ,                                       !- Number of Vertices
  -14.1578838994939, -0.244792745914602, 1.2375, !- X,Y,Z Vertex 1 {m}
  -14.1578838994939, -0.244792745914602, 0, !- X,Y,Z Vertex 2 {m}
  -28.3157677989877, -0.489585491829303, 0, !- X,Y,Z Vertex 3 {m}
  -28.3157677989877, -0.489585491829303, 1.2375; !- X,Y,Z Vertex 4 {m}

OS:Surface,
  {e6fb4f15-a8ee-441b-ae4e-6b7c2b2179f1}, !- Handle
  Surface 21,                             !- Name
  Wall,                                   !- Surface Type
  ,                                       !- Construction Name
  {5ec2936c-9d8b-417b-9ba1-e9ad8720845e}, !- Space Name
  Outdoors,                               !- Outside Boundary Condition
  ,                                       !- Outside Boundary Condition Object
  SunExposed,                             !- Sun Exposure
  WindExposed,                            !- Wind Exposure
  ,                                       !- View Factor to Ground
  ,                                       !- Number of Vertices
  0, 0, 1.2375,                           !- X,Y,Z Vertex 1 {m}
  0, 0, 0,                                !- X,Y,Z Vertex 2 {m}
  -14.1578838994939, -0.244792745914602, 0, !- X,Y,Z Vertex 3 {m}
  -14.1578838994939, -0.244792745914602, 1.2375; !- X,Y,Z Vertex 4 {m}

OS:Surface,
  {abea4f05-be20-467f-ad94-98dad374c7a6}, !- Handle
  Surface 22,                             !- Name
  RoofCeiling,                            !- Surface Type
  ,                                       !- Construction Name
  {5ec2936c-9d8b-417b-9ba1-e9ad8720845e}, !- Space Name
  Surface,                                !- Outside Boundary Condition
  {5fef74ff-2754-453e-8543-2fde789914c0}, !- Outside Boundary Condition Object
  NoSun,                                  !- Sun Exposure
  NoWind,                                 !- Wind Exposure
  ,                                       !- View Factor to Ground
  ,                                       !- Number of Vertices
  -14.1578838994939, -0.244792745914602, 1.2375, !- X,Y,Z Vertex 1 {m}
  -28.3157677989877, -0.489585491829303, 1.2375, !- X,Y,Z Vertex 2 {m}
  -28.0887914765834, -13.6170350350254, 1.2375, !- X,Y,Z Vertex 3 {m}
  -27.861815154179, -26.7444845782215, 1.2375, !- X,Y,Z Vertex 4 {m}
  -33.7534345664507, -26.8463518985112, 1.2375, !- X,Y,Z Vertex 5 {m}
  -39.6450539787225, -26.9482192188009, 1.2375, !- X,Y,Z Vertex 6 {m}
  -39.5109474910817, -34.7044297841612, 1.2375, !- X,Y,Z Vertex 7 {m}
  -39.376841003441, -42.4606403495215, 1.2375, !- X,Y,Z Vertex 8 {m}
  -33.4852215911692, -42.3587730292318, 1.2375, !- X,Y,Z Vertex 9 {m}
  -27.5936021788975, -42.2569057089421, 1.2375, !- X,Y,Z Vertex 10 {m}
  -27.3807791144722, -54.5657844954032, 1.2375, !- X,Y,Z Vertex 11 {m}
  -27.1679560500469, -66.8746632818642, 1.2375, !- X,Y,Z Vertex 12 {m}
  -13.010072150553, -66.6298705359496, 1.2375, !- X,Y,Z Vertex 13 {m}
  1.1478117489408, -66.385077790035, 1.2375, !- X,Y,Z Vertex 14 {m}
  0.956509790784001, -55.3208981583625, 1.2375, !- X,Y,Z Vertex 15 {m}
  0.765207832627198, -44.25671852669, 1.2375, !- X,Y,Z Vertex 16 {m}
  0.573905874470398, -33.1925388950175, 1.2375, !- X,Y,Z Vertex 17 {m}
  0.382603916313599, -22.128359263345, 1.2375, !- X,Y,Z Vertex 18 {m}
  0.191301958156799, -11.0641796316725, 1.2375, !- X,Y,Z Vertex 19 {m}
  0, 0, 1.2375;                           !- X,Y,Z Vertex 20 {m}

OS:BuildingStory,
  {17923dcb-0d1a-425b-9702-23623950d98c}, !- Handle
  Cell:Story 2,                           !- Name
  1.2375,                                 !- Nominal Z Coordinate {m}
  0.825,                                  !- Nominal Floor to Floor Height {m}
  ,                                       !- Default Construction Set Name
  ,                                       !- Default Schedule Set Name
  ;                                       !- Group Rendering Name

OS:Space,
  {d7331ca4-c24d-4907-9458-b57e98e63788}, !- Handle
  0 Core Space 1,                         !- Name
  ,                                       !- Space Type Name
  ,                                       !- Default Construction Set Name
  ,                                       !- Default Schedule Set Name
  -0,                                     !- Direction of Relative North {deg}
  31.05,                                  !- X Origin {m}
  19.92,                                  !- Y Origin {m}
  1.2375,                                 !- Z Origin {m}
  {17923dcb-0d1a-425b-9702-23623950d98c}, !- Building Story Name
  {500c5c8c-5c2d-4880-a22e-f36a58ab6cf8}; !- Thermal Zone Name

OS:Surface,
  {5fef74ff-2754-453e-8543-2fde789914c0}, !- Handle
  Surface 23,                             !- Name
  Floor,                                  !- Surface Type
  ,                                       !- Construction Name
  {d7331ca4-c24d-4907-9458-b57e98e63788}, !- Space Name
  Surface,                                !- Outside Boundary Condition
  {abea4f05-be20-467f-ad94-98dad374c7a6}, !- Outside Boundary Condition Object
  NoSun,                                  !- Sun Exposure
  NoWind,                                 !- Wind Exposure
  ,                                       !- View Factor to Ground
  ,                                       !- Number of Vertices
  0, 0, 2.22044604925031e-16,             !- X,Y,Z Vertex 1 {m}
  0.191301958156799, -11.0641796316725, 2.22044604925031e-16, !- X,Y,Z Vertex 2 {m}
  0.382603916313599, -22.128359263345, 2.22044604925031e-16, !- X,Y,Z Vertex 3 {m}
  0.573905874470398, -33.1925388950175, 2.22044604925031e-16, !- X,Y,Z Vertex 4 {m}
  0.765207832627198, -44.25671852669, 2.22044604925031e-16, !- X,Y,Z Vertex 5 {m}
  0.956509790784001, -55.3208981583625, 2.22044604925031e-16, !- X,Y,Z Vertex 6 {m}
  1.1478117489408, -66.385077790035, 2.22044604925031e-16, !- X,Y,Z Vertex 7 {m}
  -13.010072150553, -66.6298705359496, 2.22044604925031e-16, !- X,Y,Z Vertex 8 {m}
  -27.1679560500469, -66.8746632818642, 2.22044604925031e-16, !- X,Y,Z Vertex 9 {m}
  -27.3807791144722, -54.5657844954032, 2.22044604925031e-16, !- X,Y,Z Vertex 10 {m}
  -27.5936021788975, -42.2569057089421, 2.22044604925031e-16, !- X,Y,Z Vertex 11 {m}
  -33.4852215911692, -42.3587730292318, 2.22044604925031e-16, !- X,Y,Z Vertex 12 {m}
  -39.376841003441, -42.4606403495215, 2.22044604925031e-16, !- X,Y,Z Vertex 13 {m}
  -39.5109474910817, -34.7044297841612, 2.22044604925031e-16, !- X,Y,Z Vertex 14 {m}
  -39.6450539787225, -26.9482192188009, 2.22044604925031e-16, !- X,Y,Z Vertex 15 {m}
  -33.7534345664507, -26.8463518985112, 2.22044604925031e-16, !- X,Y,Z Vertex 16 {m}
  -27.861815154179, -26.7444845782215, 2.22044604925031e-16, !- X,Y,Z Vertex 17 {m}
  -28.0887914765834, -13.6170350350254, 2.22044604925031e-16, !- X,Y,Z Vertex 18 {m}
  -28.3157677989877, -0.489585491829303, 2.22044604925031e-16, !- X,Y,Z Vertex 19 {m}
  -14.1578838994939, -0.244792745914602, 2.22044604925031e-16; !- X,Y,Z Vertex 20 {m}

OS:Surface,
  {1a818fc1-13da-4205-9c2e-ebadd847b01a}, !- Handle
  Surface 24,                             !- Name
  Wall,                                   !- Surface Type
  ,                                       !- Construction Name
  {d7331ca4-c24d-4907-9458-b57e98e63788}, !- Space Name
  Outdoors,                               !- Outside Boundary Condition
  ,                                       !- Outside Boundary Condition Object
  SunExposed,                             !- Sun Exposure
  WindExposed,                            !- Wind Exposure
  ,                                       !- View Factor to Ground
  ,                                       !- Number of Vertices
  0.191301958156799, -11.0641796316725, 0.825, !- X,Y,Z Vertex 1 {m}
  0.191301958156799, -11.0641796316725, 2.22044604925031e-16, !- X,Y,Z Vertex 2 {m}
  0, 0, 2.22044604925031e-16,             !- X,Y,Z Vertex 3 {m}
  0, 0, 0.825;                            !- X,Y,Z Vertex 4 {m}

OS:Surface,
  {b41a95ee-883f-402b-b16c-807d8fffc794}, !- Handle
  Surface 25,                             !- Name
  Wall,                                   !- Surface Type
  ,                                       !- Construction Name
  {d7331ca4-c24d-4907-9458-b57e98e63788}, !- Space Name
  Outdoors,                               !- Outside Boundary Condition
  ,                                       !- Outside Boundary Condition Object
  SunExposed,                             !- Sun Exposure
  WindExposed,                            !- Wind Exposure
  ,                                       !- View Factor to Ground
  ,                                       !- Number of Vertices
  0.382603916313599, -22.128359263345, 0.825, !- X,Y,Z Vertex 1 {m}
  0.382603916313599, -22.128359263345, 2.22044604925031e-16, !- X,Y,Z Vertex 2 {m}