
OS:Version,
  {b3bc05dd-1a5e-4b9b-856a-936f32fae5ea}, !- Handle
  1.6.0;                                  !- Version Identifier

OS:BuildingStory,
  {11f84bd8-3883-4a1a-b3c9-706af1d94e6d}, !- Handle
  Story 1,                                !- Name
  0,                                      !- Nominal Z Coordinate {m}
  1,                                      !- Nominal Floor to Floor Height {m}
  ,                                       !- Default Construction Set Name
  ,                                       !- Default Schedule Set Name
  {001100ab-4b2f-4db4-a915-77328d2993f9}; !- Group Rendering Name

OS:Space,
  {3b69b220-f121-4e69-ab99-6b03908abe58}, !- Handle
  Story 1 Core Space,                     !- Name
  ,                                       !- Space Type Name
  ,                                       !- Default Construction Set Name
  ,                                       !- Default Schedule Set Name
  -0,                                     !- Direction of Relative North {deg}
  0,                                      !- X Origin {m}
  0,                                      !- Y Origin {m}
  0,                                      !- Z Origin {m}
  {11f84bd8-3883-4a1a-b3c9-706af1d94e6d}, !- Building Story Name
  {c0ae7be9-96ef-421e-8c63-9c0d6dc28564}; !- Thermal Zone Name

OS:Surface,
  {a0b0d087-afe4-4390-b186-b50dc6165f46}, !- Handle
  Surface 1,                              !- Name
  Floor,                                  !- Surface Type
  ,                                       !- Construction Name
  {3b69b220-f121-4e69-ab99-6b03908abe58}, !- Space Name
  Ground,                                 !- Outside Boundary Condition
  ,                                       !- Outside Boundary Condition Object
  NoSun,                                  !- Sun Exposure
  NoWind,                                 !- Wind Exposure
  ,                                       !- View Factor to Ground
  ,                                       !- Number of Vertices
  100, 50, 0,                             !- X,Y,Z Vertex 1 {m}
  100, 0, 0,                              !- X,Y,Z Vertex 2 {m}
  0, 0, 0,                                !- X,Y,Z Vertex 3 {m}
  0, 50, 0;                               !- X,Y,Z Vertex 4 {m}

OS:Surface,
  {df824870-1984-41e6-ac0d-fa45ee7dfd1d}, !- Handle
  Surface 2,                              !- Name
  Wall,                                   !- Surface Type
  ,                                       !- Construction Name
  {3b69b220-f121-4e69-ab99-6b03908abe58}, !- Space Name
  Outdoors,                               !- Outside Boundary Condition
  ,                                       !- Outside Boundary Condition Object
  SunExposed,                             !- Sun Exposure
  WindExposed,                            !- Wind Exposure
  ,                                       !- View Factor to Ground
  ,                                       !- Number of Vertices
  0, 5, 1,                                !- X,Y,Z Vertex 1 {m}
  0, 5, 0,                                !- X,Y,Z Vertex 2 {m}
  0, 0, 0,                                !- X,Y,Z Vertex 3 {m}
  0, 0, 1;                                !- X,Y,Z Vertex 4 {m}

OS:Surface,
  {14ff315a-6e2b-4f25-bdea-ebc88739199b}, !- Handle
  Surface 3,                              !- Name
  Wall,                                   !- Surface Type
  ,                                       !- Construction Name
  {3b69b220-f121-4e69-ab99-6b03908abe58}, !- Space Name
  Outdoors,                               !- Outside Boundary Condition
  ,                                       !- Outside Boundary Condition Object
  SunExposed,                             !- Sun Exposure
  WindExposed,                            !- Wind Exposure
  ,                                       !- View Factor to Ground
  ,                                       !- Number of Vertices
  0, 10, 1,                               !- X,Y,Z Vertex 1 {m}
  0, 10, 0,                               !- X,Y,Z Vertex 2 {m}
  0, 5, 0,                                !- X,Y,Z Vertex 3 {m}
  0, 5, 1;                                !- X,Y,Z Vertex 4 {m}

OS:Surface,
  {af26436b-6c12-4ecf-b19d-f77f74a8fb6f}, !- Handle
  Surface 4,                              !- Name
  Wall,                                   !- Surface Type
  ,                                       !- Construction Name
  {3b69b220-f121-4e69-ab99-6b03908abe58}, !- Space Name
  Outdoors,                               !- Outside Boundary Condition
  ,                                       !- Outside Boundary Condition Object
  SunExposed,                             !- Sun Exposure
  WindExposed,                            !- Wind Exposure
  ,                                       !- View Factor to Ground
  ,                                       !- Number of Vertices
  0, 15, 1,                               !- X,Y,Z Vertex 1 {m}
  0, 15, 0,                               !- X,Y,Z Vertex 2 {m}
  0, 10, 0,                               !- X,Y,Z Vertex 3 {m}
  0, 10, 1;                               !- X,Y,Z Vertex 4 {m}

OS:Surface,
  {e91a6414-a008-4369-aeac-c89059f62bc6}, !- Handle
  Surface 5,                              !- Name
  Wall,                                   !- Surface Type
  ,                                       !- Construction Name
  {3b69b220-f121-4e69-ab99-6b03908abe58}, !- Space Name
  Outdoors,                               !- Outside Boundary Condition
  ,                                       !- Outside Boundary Condition Object
  SunExposed,                             !- Sun Exposure
  WindExposed,                            !- Wind Exposure
  ,                                       !- View Factor to Ground
  ,                                       !- Number of Vertices
  0, 20, 1,                               !- X,Y,Z Vertex 1 {m}
  0, 20, 0,                               !- X,Y,Z Vertex 2 {m}
  0, 15, 0,                               !- X,Y,Z Vertex 3 {m}
  0, 15, 1;                               !- X,Y,Z Vertex 4 {m}

OS:Surface,
  {7cdb2e7c-f901-4258-ad9c-a45e75895760}, !- Handle
  Surface 6,                              !- Name
  Wall,                                   !- Surface Type
  ,                                       !- Construction Name
  {3b69b220-f121-4e69-ab99-6b03908abe58}, !- Space Name
  Outdoors,                               !- Outside Boundary Condition
  ,                                       !- Outside Boundary Condition Object
  SunExposed,                             !- Sun Exposure
  WindExposed,                            !- Wind Exposure
  ,                                       !- View Factor to Ground
  ,                                       !- Number of Vertices
  0, 25, 1,                               !- X,Y,Z Vertex 1 {m}
  0, 25, 0,                               !- X,Y,Z Vertex 2 {m}
  0, 20, 0,                               !- X,Y,Z Vertex 3 {m}
  0, 20, 1;                               !- X,Y,Z Vertex 4 {m}

OS:Surface,
  {1b310109-3495-40cb-aa56-8ab90ba68e3a}, !- Handle
  Surface 7,                              !- Name
  Wall,                                   !- Surface Type
  ,                                       !- Construction Name
  {3b69b220-f121-4e69-ab99-6b03908abe58}, !- Space Name
  Outdoors,                               !- Outside Boundary Condition
  ,                                       !- Outside Boundary Condition Object
  SunExposed,                             !- Sun Exposure
  WindExposed,                            !- Wind Exposure
  ,                                       !- View Factor to Ground
  ,                                       !- Number of Vertices
  0, 30, 1,                               !- X,Y,Z Vertex 1 {m}
  0, 30, 0,                               !- X,Y,Z Vertex 2 {m}
  0, 25, 0,                               !- X,Y,Z Vertex 3 {m}
  0, 25, 1;                               !- X,Y,Z Vertex 4 {m}

OS:Surface,
  {cb8c99ac-892e-4dd6-9642-23d59b6eca49}, !- Handle
  Surface 8,                              !- Name
  Wall,                                   !- Surface Type
  ,                                       !- Construction Name
  {3b69b220-f121-4e69-ab99-6b03908abe58}, !- Space Name
  Outdoors,                               !- Outside Boundary Condition
  ,                                       !- Outside Boundary Condition Object
  SunExposed,                             !- Sun Exposure
  WindExposed,                            !- Wind Exposure
  ,                                       !- View Factor to Ground
  ,                                       !- Number of Vertices
  0, 35, 1,                               !- X,Y,Z Vertex 1 {m}
  0, 35, 0,                               !- X,Y,Z Vertex 2 {m}
  0, 30, 0,                               !- X,Y,Z Vertex 3 {m}
  0, 30, 1;                               !- X,Y,Z Vertex 4 {m}

OS:Surface,
  {c6e34ea9-ed61-4dc9-a02c-371331e25bb1}, !- Handle
  Surface 9,                              !- Name
  Wall,                                   !- Surface Type
  ,                                       !- Construction Name
  {3b69b220-f121-4e69-ab99-6b03908abe58}, !- Space Name
  Outdoors,                               !- Outside Boundary Condition
  ,                                       !- Outside Boundary Condition Object
  SunExposed,                             !- Sun Exposure
  WindExposed,                            !- Wind Exposure
  ,                                       !- View Factor to Ground
  ,                                       !- Number of Vertices
  0, 40, 1,                               !- X,Y,Z Vertex 1 {m}
  0, 40, 0,                               !- X,Y,Z Vertex 2 {m}
  0, 35, 0,                               !- X,Y,Z Vertex 3 {m}
  0, 35, 1;                               !- X,Y,Z Vertex 4 {m}

OS:Surface,
  {d5d346b4-8ec4-4802-aa65-96a2aac8ec9d}, !- Handle
  Surface 10,                             !- Name
  Wall,                                   !- Surface Type
  ,                                       !- Construction Name
  {3b69b220-f121-4e69-ab99-6b03908abe58}, !- Space Name
  Outdoors,                               !- Outside Boundary Condition
  ,                                       !- Outside Boundary Condition Object
  SunExposed,                             !- Sun Exposure
  WindExposed,                            !- Wind Exposure
  ,                                       !- View Factor to Ground
  ,                                       !- Number of Vertices
  0, 45, 1,                               !- X,Y,Z Vertex 1 {m}
  0, 45, 0,                               !- X,Y,Z Vertex 2 {m}
  0, 40, 0,                               !- X,Y,Z Vertex 3 {m}
  0, 40, 1;                               !- X,Y,Z Vertex 4 {m}

OS:Surface,
  {e23cafb2-72f5-4e1a-b9f7-d4f72fa82db9}, !- Handle
  Surface 11,                             !- Name
  Wall,                                   !- Surface Type
  ,                                       !- Construction Name
  {3b69b220-f121-4e69-ab99-6b03908abe58}, !- Space Name
  Outdoors,                               !- Outside Boundary Condition
  ,                                       !- Outside Boundary Condition Object
  SunExposed,                             !- Sun Exposure
  WindExposed,                            !- Wind Exposure
  ,                                       !- View Factor to Ground
  ,                                       !- Number of Vertices
  0, 50, 1,                               !- X,Y,Z Vertex 1 {m}
  0, 50, 0,                               !- X,Y,Z Vertex 2 {m}
  0, 45, 0,                               !- X,Y,Z Vertex 3 {m}
  0, 45, 1;                               !- X,Y,Z Vertex 4 {m}

OS:Surface,
  {272caf27-327f-4d33-9135-b762e02c50e8}, !- Handle
  Surface 12,                             !- Name
  Wall,                                   !- Surface Type
  ,                                       !- Construction Name
  {3b69b220-f121-4e69-ab99-6b03908abe58}, !- Space Name
  Outdoors,                               !- Outside Boundary Condition
  ,                                       !- Outside Boundary Condition Object
  SunExposed,                             !- Sun Exposure
  WindExposed,                            !- Wind Exposure
  ,                                       !- View Factor to Ground
  ,                                       !- Number of Vertices
  5, 50, 1,                               !- X,Y,Z Vertex 1 {m}
  5, 50, 0,                               !- X,Y,Z Vertex 2 {m}
  0, 50, 0,                               !- X,Y,Z Vertex 3 {m}
  0, 50, 1;                               !- X,Y,Z Vertex 4 {m}

OS:Surface,
  {8e5787b5-68ff-4ea3-ba97-ff3c72555de4}, !- Handle
  Surface 13,                             !- Name
  Wall,                                   !- Surface Type
  ,                                       !- Construction Name
  {3b69b220-f121-4e69-ab99-6b03908abe58}, !- Space Name
  Outdoors,                               !- Outside Boundary Condition
  ,                                       !- Outside Boundary Condition Object
  SunExposed,                             !- Sun Exposure
  WindExposed,                            !- Wind Exposure
  ,                                       !- View Factor to Ground
  ,                                       !- Number of Vertices
  10, 50, 1,                              !- X,Y,Z Vertex 1 {m}
  10, 50, 0,                              !- X,Y,Z Vertex 2 {m}
  5, 50, 0,                               !- X,Y,Z Vertex 3 {m}
  5, 50, 1;                               !- X,Y,Z Vertex 4 {m}

OS:Surface,
  {4367499f-11f2-4197-bc13-f4e2392f5d0e}, !- Handle
  Surface 14,                             !- Name
  Wall,                                   !- Surface Type
  ,                                       !- Construction Name
  {3b69b220-f121-4e69-ab99-6b03908abe58}, !- Space Name
  Outdoors,                               !- Outside Boundary Condition
  ,                                       !- Outside Boundary Condition Object
  SunExposed,                             !- Sun Exposure
  WindExposed,                            !- Wind Exposure
  ,                                       !- View Factor to Ground
  ,                                       !- Number of Vertices
  15, 50, 1,                              !- X,Y,Z Vertex 1 {m}
  15, 50, 0,                              !- X,Y,Z Vertex 2 {m}
  10, 50, 0,                              !- X,Y,Z Vertex 3 {m}
  10, 50, 1;                              !- X,Y,Z Vertex 4 {m}

OS:Surface,
  {7f629c34-5500-4ac1-a1ab-60a316d8b085}, !- Handle
  Surface 15,                             !- Name
  Wall,                                   !- Surface Type
  ,                                       !- Construction Name
  {3b69b220-f121-4e69-ab99-6b03908abe58}, !- Space Name
  Outdoors,                               !- Outside Boundary Condition
  ,                                       !- Outside Boundary Condition Object
  SunExposed,                             !- Sun Exposure
  WindExposed,                            !- Wind Exposure
  ,                                       !- View Factor to Ground
  ,                                       !- Number of Vertices
  20, 50, 1,                              !- X,Y,Z Vertex 1 {m}
  20, 50, 0,                              !- X,Y,Z Vertex 2 {m}
  15, 50, 0,                              !- X,Y,Z Vertex 3 {m}
  15, 50, 1;                              !- X,Y,Z Vertex 4 {m}

OS:Surface,
  {59b2428a-8374-43ce-9225-f8375a77609f}, !- Handle
  Surface 16,                             !- Name
  Wall,                                   !- Surface Type
  ,                                       !- Construction Name
  {3b69b220-f121-4e69-ab99-6b03908abe58}, !- Space Name
  Outdoors,                               !- Outside Boundary Condition
  ,                                       !- Outside Boundary Condition Object
  SunExposed,                             !- Sun Exposure
  WindExposed,                            !- Wind Exposure
  ,                                       !- View Factor to Ground
  ,                                       !- Number of Vertices
  25, 50, 1,                              !- X,Y,Z Vertex 1 {m}
  25, 50, 0,                              !- X,Y,Z Vertex 2 {m}
  20, 50, 0,                              !- X,Y,Z Vertex 3 {m}
  20, 50, 1;                              !- X,Y,Z Vertex 4 {m}

OS:Surface,
  {7893e441-2a1e-4f33-a5c9-7b8ae4bc8c66}, !- Handle
  Surface 17,                             !- Name
  Wall,                                   !- Surface Type
  ,                                       !- Construction Name
  {3b69b220-f121-4e69-ab99-6b03908abe58}, !- Space Name
  Outdoors,                               !- Outside Boundary Condition
  ,                                       !- Outside Boundary Condition Object
  SunExposed,                             !- Sun Exposure
  WindExposed,                            !- Wind Exposure
  ,                                       !- View Factor to Ground
  ,                                       !- Number of Vertices
  30, 50, 1,                              !- X,Y,Z Vertex 1 {m}
  30, 50, 0,                              !- X,Y,Z Vertex 2 {m}
  25, 50, 0,                              !- X,Y,Z Vertex 3 {m}
  25, 50, 1;                              !- X,Y,Z Vertex 4 {m}

OS:Surface,
  {08702463-2a29-4d68-bac6-1667453e15b4}, !- Handle
  Surface 18,                             !- Name
  Wall,                                   !- Surface Type
  ,                                       !- Construction Name
  {3b69b220-f121-4e69-ab99-6b03908abe58}, !- Space Name
  Outdoors,                               !- Outside Boundary Condition
  ,                                       !- Outside Boundary Condition Object
  SunExposed,                             !- Sun Exposure
  WindExposed,                            !- Wind Exposure
  ,                                       !- View Factor to Ground
  ,                                       !- Number of Vertices
  35, 50, 1,                              !- X,Y,Z Vertex 1 {m}
  35, 50, 0,                              !- X,Y,Z Vertex 2 {m}
  30, 50, 0,                              !- X,Y,Z Vertex 3 {m}
  30, 50, 1;                              !- X,Y,Z Vertex 4 {m}

OS:Surface,
  {106029f7-85d6-4a65-93aa-43913941c538}, !- Handle
  Surface 19,                             !- Name
  Wall,                                   !- Surface Type
  ,                                       !- Construction Name
  {3b69b220-f121-4e69-ab99-6b03908abe58}, !- Space Name
  Outdoors,                               !- Outside Boundary Condition
  ,                                       !- Outside Boundary Condition Object
  SunExposed,                             !- Sun Exposure
  WindExposed,                            !- Wind Exposure
  ,                                       !- View Factor to Ground
  ,                                       !- Number of Vertices
  40, 50, 1,                              !- X,Y,Z Vertex 1 {m}
  40, 50, 0,                              !- X,Y,Z Vertex 2 {m}
  35, 50, 0,                              !- X,Y,Z Vertex 3 {m}
  35, 50, 1;                              !- X,Y,Z Vertex 4 {m}

OS:Surface,
  {50168119-451e-4e56-815a-d0eceabeae03}, !- Handle
  Surface 20,                             !- Name
  Wall,                                   !- Surface Type
  ,                                       !- Construction Name
  {3b69b220-f121-4e69-ab99-6b03908abe58}, !- Space Name
  Outdoors,                               !- Outside Boundary Condition
  ,                                       !- Outside Boundary Condition Object
  SunExposed,                             !- Sun Exposure
  WindExposed,                            !- Wind Exposure
  ,                                       !- View Factor to Ground
  ,                                       !- Number of Vertices
  45, 50, 1,                              !- X,Y,Z Vertex 1 {m}
  45, 50, 0,                              !- X,Y,Z Vertex 2 {m}
  40, 50, 0,                              !- X,Y,Z Vertex 3 {m}
  40, 50, 1;                              !- X,Y,Z Vertex 4 {m}

OS:Surface,
  {f9d4c6da-6f1d-435b-b4ea-97da843d76dc}, !- Handle
  Surface 21,                             !- Name
  Wall,                                   !- Surface Type
  ,                                       !- Construction Name
  {3b69b220-f121-4e69-ab99-6b03908abe58}, !- Space Name
  Outdoors,                               !- Outside Boundary Condition
  ,                                       !- Outside Boundary Condition Object
  SunExposed,                             !- Sun Exposure
  WindExposed,                            !- Wind Exposure
  ,                                       !- View Factor to Ground
  ,                                       !- Number of Vertices
  50, 50, 1,                              !- X,Y,Z Vertex 1 {m}
  50, 50, 0,                              !- X,Y,Z Vertex 2 {m}
  45, 50, 0,                              !- X,Y,Z Vertex 3 {m}
  45, 50, 1;                              !- X,Y,Z Vertex 4 {m}

OS:Surface,
  {6db566f9-10e1-4d35-a0d5-b4fd45ca808c}, !- Handle
  Surface 22,                             !- Name
  Wall,                                   !- Surface Type
  ,                                       !- Construction Name
  {3b69b220-f121-4e69-ab99-6b03908abe58}, !- Space Name
  Outdoors,                               !- Outside Boundary Condition
  ,                                       !- Outside Boundary Condition Object
  SunExposed,                             !- Sun Exposure
  WindExposed,                            !- Wind Exposure
  ,                                       !- View Factor to Ground
  ,                                       !- Number of Vertices
  55, 50, 1,                              !- X,Y,Z Vertex 1 {m}
  55, 50, 0,                              !- X,Y,Z Vertex 2 {m}
  50, 50, 0,                              !- X,Y,Z Vertex 3 {m}
  50, 50, 1;                              !- X,Y,Z Vertex 4 {m}

OS:Surface,
  {464d6868-f11e-4f37-a285-5d063ba62884}, !- Handle
  Surface 23,                             !- Name
  Wall,                                   !- Surface Type
  ,                                       !- Construction Name
  {3b69b220-f121-4e69-ab99-6b03908abe58}, !- Space Name
  Outdoors,                               !- Outside Boundary Condition
  ,                                       !- Outside Boundary Condition Object
  SunExposed,                             !- Sun Exposure
  WindExposed,                            !- Wind Exposure
  ,                                       !- View Factor to Ground
  ,                                       !- Number of Vertices
  60, 50, 1,                              !- X,Y,Z Vertex 1 {m}
  60, 50, 0,                              !- X,Y,Z Vertex 2 {m}
  55, 50, 0,                              !- X,Y,Z Vertex 3 {m}
  55, 50, 1;                              !- X,Y,Z Vertex 4 {m}

OS:Surface,
  {2e285a09-113c-4be9-a763-7a60ae96a307}, !- Handle
  Surface 24,                             !- Name
  Wall,                                   !- Surface Type
  ,                                       !- Construction Name
  {3b69b220-f121-4e69-ab99-6b03908abe58}, !- Space Name
  Outdoors,                               !- Outside Boundary Condition
  ,                                       !- Outside Boundary Condition Object
  SunExposed,                             !- Sun Exposure
  WindExposed,                            !- Wind Exposure
  ,                                       !- View Factor to Ground
  ,                                       !- Number of Vertices
  65, 50, 1,                              !- X,Y,Z Vertex 1 {m}
  65, 50, 0,                              !- X,Y,Z Vertex 2 {m}
  60, 50, 0,                              !- X,Y,Z Vertex 3 {m}
  60, 50, 1;                              !- X,Y,Z Vertex 4 {m}

OS:Surface,
  {d3d389bc-2e6c-45f3-a1fc-a9d256033f1a}, !- Handle
  Surface 25,                             !- Name
  Wall,                                   !- Surface Type
  ,                                       !- Construction Name
  {3b69b220-f121-4e69-ab99-6b03908abe58}, !- Space Name
  Outdoors,                               !- Outside Boundary Condition
  ,                                       !- Outside Boundary Condition Object
  SunExposed,                             !- Sun Exposure
  WindExposed,                            !- Wind Exposure
  ,                                       !- View Factor to Ground
  ,                                       !- Number of Vertices
  70, 50, 1,                              !- X,Y,Z Vertex 1 {m}
  70, 50, 0,                              !- X,Y,Z Vertex 2 {m}
  65, 50, 0,                              !- X,Y,Z Vertex 3 {m}
  65, 50, 1;                              !- X,Y,Z Vertex 4 {m}

OS:Surface,
  {4d445e81-ded7-4d17-98bf-53e50e2266e5}, !- Handle
  Surface 26,                             !- Name
  Wall,                                   !- Surface Type
  ,                                       !- Construction Name
  {3b69b220-f121-4e69-ab99-6b03908abe58}, !- Space Name
  Outdoors,                               !- Outside Boundary Condition
  ,                                       !- Outside Boundary Condition Object
  SunExposed,                             !- Sun Exposure
  WindExposed,                            !- Wind Exposure
  ,                                       !- View Factor to Ground
  ,                                       !- Number of Vertices
  75, 50, 1,                              !- X,Y,Z Vertex 1 {m}
  75, 50, 0,                              !- X,Y,Z Vertex 2 {m}
  70, 50, 0,                              !- X,Y,Z Vertex 3 {m}
  70, 50, 1;                              !- X,Y,Z Vertex 4 {m}

OS:Surface,
  {16abc963-9892-4752-bb91-c1f877ce136a}, !- Handle
  Surface 27,                             !- Name
  Wall,                                   !- Surface Type
  ,                                       !- Construction Name
  {3b69b220-f121-4e69-ab99-6b03908abe58}, !- Space Name
  Outdoors,                               !- Outside Boundary Condition
  ,                                       !- Outside Boundary Condition Object
  SunExposed,                             !- Sun Exposure
  WindExposed,                            !- Wind Exposure
  ,                                       !- View Factor to Ground
  ,                                       !- Number of Vertices
  80, 50, 1,                              !- X,Y,Z Vertex 1 {m}
  80, 50, 0,                              !- X,Y,Z Vertex 2 {m}
  75, 50, 0,                              !- X,Y,Z Vertex 3 {m}
  75, 50, 1;                              !- X,Y,Z Vertex 4 {m}

OS:Surface,
  {eacfb217-6e52-408d-a809-fb6283cce7f0}, !- Handle
  Surface 28,                             !- Name
  Wall,                                   !- Surface Type
  ,                                       !- Construction Name
  {3b69b220-f121-4e69-ab99-6b03908abe58}, !- Space Name
  Outdoors,                               !- Outside Boundary Condition
  ,                                       !- Outside Boundary Condition Object
  SunExposed,                             !- Sun Exposure
  WindExposed,                            !- Wind Exposure
  ,                                       !- View Factor to Ground
  ,                                       !- Number of Vertices
  85, 50, 1,                              !- X,Y,Z Vertex 1 {m}
  85, 50, 0,                              !- X,Y,Z Vertex 2 {m}
  80, 50, 0,                              !- X,Y,Z Vertex 3 {m}
  80, 50, 1;                              !- X,Y,Z Vertex 4 {m}

OS:Surface,
  {715f8561-cdab-4775-96d2-c1554adaedcb}, !- Handle
  Surface 29,                             !- Name
  Wall,                                   !- Surface Type
  ,                                       !- Construction Name
  {3b69b220-f121-4e69-ab99-6b03908abe58}, !- Space Name
  Outdoors,                               !- Outside Boundary Condition
  ,                                       !- Outside Boundary Condition Object
  SunExposed,                             !- Sun Exposure
  WindExposed,                            !- Wind Exposure
  ,                                       !- View Factor to Ground
  ,                                       !- Number of Vertices
  90, 50, 1,                              !- X,Y,Z Vertex 1 {m}
  90, 50, 0,                              !- X,Y,Z Vertex 2 {m}
  85, 50, 0,                              !- X,Y,Z Vertex 3 {m}
  85, 50, 1;                              !- X,Y,Z Vertex 4 {m}

OS:Surface,
  {971910a2-f150-4e8b-ab30-124abdb62cde}, !- Handle
  Surface 30,                             !- Name
  Wall,                                   !- Surface Type
  ,                                       !- Construction Name
  {3b69b220-f121-4e69-ab99-6b03908abe58}, !- Space Name
  Outdoors,                               !- Outside Boundary Condition
  ,                                       !- Outside Boundary Condition Object
  SunExposed,                             !- Sun Exposure
  WindExposed,                            !- Wind Exposure
  ,                                       !- View Factor to Ground
  ,                                       !- Number of Vertices
  95, 50, 1,                              !- X,Y,Z Vertex 1 {m}
  95, 50, 0,                              !- X,Y,Z Vertex 2 {m}
  90, 50, 0,                              !- X,Y,Z Vertex 3 {m}
  90, 50, 1;                              !- X,Y,Z Vertex 4 {m}

OS:Surface,
  {deb3e0c5-ecd2-469c-adf3-6aec51dcf26f}, !- Handle
  Surface 31,                             !- Name
  Wall,                                   !- Surface Type
  ,                                       !- Construction Name