
OS:Version,
  {c5b11551-1703-4b92-9a0a-a85b7b400da3}, !- Handle
  1.6.0;                                  !- Version Identifier

OS:BuildingStory,
  {63ef25c2-2f98-418a-8774-0bc509b3ae42}, !- Handle
  1st Floor,                              !- Name
  3,                                      !- Nominal Z Coordinate {m}
  3,                                      !- Nominal Floor to Floor Height {m}
  ,                                       !- Default Construction Set Name
  ,                                       !- Default Schedule Set Name
  ;                                       !- Group Rendering Name

OS:Space,
  {1611b715-f42e-4209-9d60-b38e43c22943}, !- Handle
  Story 1 Core Space,                     !- Name
  ,                                       !- Space Type Name
  ,                                       !- Default Construction Set Name
  ,                                       !- Default Schedule Set Name
  -0,                                     !- Direction of Relative North {deg}
  0,                                      !- X Origin {m}
  0,                                      !- Y Origin {m}
  0,                                      !- Z Origin {m}
  {63ef25c2-2f98-418a-8774-0bc509b3ae42}, !- Building Story Name
  {147f0bf3-5d44-44b6-a975-d66a5c59b0c4}; !- Thermal Zone Name

OS:Surface,
  {0f2f5ce9-26e1-406b-8f98-ca1a55ac5e0f}, !- Handle
  Surface 1,                              !- Name
  Floor,                                  !- Surface Type
  ,                                       !- Construction Name
  {1611b715-f42e-4209-9d60-b38e43c22943}, !- Space Name
  Ground,                                 !- Outside Boundary Condition
  ,                                       !- Outside Boundary Condition Object
  NoSun,                                  !- Sun Exposure
  NoWind,                                 !- Wind Exposure
  ,                                       !- View Factor to Ground
  ,                                       !- Number of Vertices
  0, 0, 0,                                !- X,Y,Z Vertex 1 {m}
  0, 5, 0,                                !- X,Y,Z Vertex 2 {m}
  0, 10, 0,                               !- X,Y,Z Vertex 3 {m}
  0, 15, 0,                               !- X,Y,Z Vertex 4 {m}
  0, 20, 0,                               !- X,Y,Z Vertex 5 {m}
  0, 25, 0,                               !- X,Y,Z Vertex 6 {m}
  0, 30, 0,                               !- X,Y,Z Vertex 7 {m}
  0, 35, 0,                               !- X,Y,Z Vertex 8 {m}
  0, 40, 0,                               !- X,Y,Z Vertex 9 {m}
  0, 45, 0,                               !- X,Y,Z Vertex 10 {m}
  0, 50, 0,                               !- X,Y,Z Vertex 11 {m}
  5, 50, 0,                               !- X,Y,Z Vertex 12 {m}
  10, 50, 0,                              !- X,Y,Z Vertex 13 {m}
  15, 50, 0,                              !- X,Y,Z Vertex 14 {m}
  20, 50, 0,                              !- X,Y,Z Vertex 15 {m}
  25, 50, 0,                              !- X,Y,Z Vertex 16 {m}
  30, 50, 0,                              !- X,Y,Z Vertex 17 {m}
  35, 50, 0,                              !- X,Y,Z Vertex 18 {m}
  40, 50, 0,                              !- X,Y,Z Vertex 19 {m}
  45, 50, 0,                              !- X,Y,Z Vertex 20 {m}
  50, 50, 0,                              !- X,Y,Z Vertex 21 {m}
  50, 45, 0,                              !- X,Y,Z Vertex 22 {m}
  50, 40, 0,                              !- X,Y,Z Vertex 23 {m}
  50, 35, 0,                              !- X,Y,Z Vertex 24 {m}
  50, 30, 0,                              !- X,Y,Z Vertex 25 {m}
  50, 25, 0,                              !- X,Y,Z Vertex 26 {m}
  50, 20, 0,                              !- X,Y,Z Vertex 27 {m}
  50, 15, 0,                              !- X,Y,Z Vertex 28 {m}
  50, 10, 0,                              !- X,Y,Z Vertex 29 {m}
  50, 5, 0,                               !- X,Y,Z Vertex 30 {m}
  50, 0, 0,                               !- X,Y,Z Vertex 31 {m}
  45, 0, 0,                               !- X,Y,Z Vertex 32 {m}
  40, 0, 0,                               !- X,Y,Z Vertex 33 {m}
  35, 0, 0,                               !- X,Y,Z Vertex 34 {m}
  30, 0, 0,                               !- X,Y,Z Vertex 35 {m}
  25, 0, 0,                               !- X,Y,Z Vertex 36 {m}
  20, 0, 0,                               !- X,Y,Z Vertex 37 {m}
  15, 0, 0,                               !- X,Y,Z Vertex 38 {m}
  10, 0, 0,                               !- X,Y,Z Vertex 39 {m}
  5, 0, 0;                                !- X,Y,Z Vertex 40 {m}

OS:Surface,
  {ded86ec9-3682-4b80-803f-c2ccf1a5be15}, !- Handle
  Surface 2,                              !- Name
  Wall,                                   !- Surface Type
  ,                                       !- Construction Name
  {1611b715-f42e-4209-9d60-b38e43c22943}, !- Space Name
  Outdoors,                               !- Outside Boundary Condition
  ,                                       !- Outside Boundary Condition Object
  SunExposed,                             !- Sun Exposure
  WindExposed,                            !- Wind Exposure
  ,                                       !- View Factor to Ground
  ,                                       !- Number of Vertices
  0, 5, 3,                                !- X,Y,Z Vertex 1 {m}
  0, 5, 0,                                !- X,Y,Z Vertex 2 {m}
  0, 0, 0,                                !- X,Y,Z Vertex 3 {m}
  0, 0, 3;                                !- X,Y,Z Vertex 4 {m}

OS:Surface,
  {e6012398-6750-4878-a401-8132cf2c7889}, !- Handle
  Surface 3,                              !- Name
  Wall,                                   !- Surface Type
  ,                                       !- Construction Name
  {1611b715-f42e-4209-9d60-b38e43c22943}, !- Space Name
  Outdoors,                               !- Outside Boundary Condition
  ,                                       !- Outside Boundary Condition Object
  SunExposed,                             !- Sun Exposure
  WindExposed,                            !- Wind Exposure
  ,                                       !- View Factor to Ground
  ,                                       !- Number of Vertices
  0, 10, 3,                               !- X,Y,Z Vertex 1 {m}
  0, 10, 0,                               !- X,Y,Z Vertex 2 {m}
  0, 5, 0,                                !- X,Y,Z Vertex 3 {m}
  0, 5, 3;                                !- X,Y,Z Vertex 4 {m}

OS:Surface,
  {1f19eb1c-476b-4f38-b5ee-ee829c9ac958}, !- Handle
  Surface 4,                              !- Name
  Wall,                                   !- Surface Type
  ,                                       !- Construction Name
  {1611b715-f42e-4209-9d60-b38e43c22943}, !- Space Name
  Outdoors,                               !- Outside Boundary Condition
  ,                                       !- Outside Boundary Condition Object
  SunExposed,                             !- Sun Exposure
  WindExposed,                            !- Wind Exposure
  ,                                       !- View Factor to Ground
  ,                                       !- Number of Vertices
  0, 15, 3,                               !- X,Y,Z Vertex 1 {m}
  0, 15, 0,                               !- X,Y,Z Vertex 2 {m}
  0, 10, 0,                               !- X,Y,Z Vertex 3 {m}
  0, 10, 3;                               !- X,Y,Z Vertex 4 {m}

OS:Surface,
  {9a7a699d-7d64-4485-89b2-8ad1060a2362}, !- Handle
  Surface 5,                              !- Name
  Wall,                                   !- Surface Type
  ,                                       !- Construction Name
  {1611b715-f42e-4209-9d60-b38e43c22943}, !- Space Name
  Outdoors,                               !- Outside Boundary Condition
  ,                                       !- Outside Boundary Condition Object
  SunExposed,                             !- Sun Exposure
  WindExposed,                            !- Wind Exposure
  ,                                       !- View Factor to Ground
  ,                                       !- Number of Vertices
  0, 20, 3,                               !- X,Y,Z Vertex 1 {m}
  0, 20, 0,                               !- X,Y,Z Vertex 2 {m}
  0, 15, 0,                               !- X,Y,Z Vertex 3 {m}
  0, 15, 3;                               !- X,Y,Z Vertex 4 {m}

OS:Surface,
  {256e0b93-03b9-481c-a78e-fd95ff7fd8c4}, !- Handle
  Surface 6,                              !- Name
  Wall,                                   !- Surface Type
  ,                                       !- Construction Name
  {1611b715-f42e-4209-9d60-b38e43c22943}, !- Space Name
  Outdoors,                               !- Outside Boundary Condition
  ,                                       !- Outside Boundary Condition Object
  SunExposed,                             !- Sun Exposure
  WindExposed,                            !- Wind Exposure
  ,                                       !- View Factor to Ground
  ,                                       !- Number of Vertices
  0, 25, 3,                               !- X,Y,Z Vertex 1 {m}
  0, 25, 0,                               !- X,Y,Z Vertex 2 {m}
  0, 20, 0,                               !- X,Y,Z Vertex 3 {m}
  0, 20, 3;                               !- X,Y,Z Vertex 4 {m}

OS:Surface,
  {ecf72d18-a5ad-4099-bb9c-81fa170812f5}, !- Handle
  Surface 7,                              !- Name
  Wall,                                   !- Surface Type
  ,                                       !- Construction Name
  {1611b715-f42e-4209-9d60-b38e43c22943}, !- Space Name
  Outdoors,                               !- Outside Boundary Condition
  ,                                       !- Outside Boundary Condition Object
  SunExposed,                             !- Sun Exposure
  WindExposed,                            !- Wind Exposure
  ,                                       !- View Factor to Ground
  ,                                       !- Number of Vertices
  0, 30, 3,                               !- X,Y,Z Vertex 1 {m}
  0, 30, 0,                               !- X,Y,Z Vertex 2 {m}
  0, 25, 0,                               !- X,Y,Z Vertex 3 {m}
  0, 25, 3;                               !- X,Y,Z Vertex 4 {m}

OS:Surface,
  {6593e1e9-21b7-4a11-9696-50e971f750dd}, !- Handle
  Surface 8,                              !- Name
  Wall,                                   !- Surface Type
  ,                                       !- Construction Name
  {1611b715-f42e-4209-9d60-b38e43c22943}, !- Space Name
  Outdoors,                               !- Outside Boundary Condition
  ,                                       !- Outside Boundary Condition Object
  SunExposed,                             !- Sun Exposure
  WindExposed,                            !- Wind Exposure
  ,                                       !- View Factor to Ground
  ,                                       !- Number of Vertices
  0, 35, 3,                               !- X,Y,Z Vertex 1 {m}
  0, 35, 0,                               !- X,Y,Z Vertex 2 {m}
  0, 30, 0,                               !- X,Y,Z Vertex 3 {m}
  0, 30, 3;                               !- X,Y,Z Vertex 4 {m}

OS:Surface,
  {9768d9ae-4bb8-4061-a9ae-8240a6eab658}, !- Handle
  Surface 9,                              !- Name
  Wall,                                   !- Surface Type
  ,                                       !- Construction Name
  {1611b715-f42e-4209-9d60-b38e43c22943}, !- Space Name
  Outdoors,                               !- Outside Boundary Condition
  ,                                       !- Outside Boundary Condition Object
  SunExposed,                             !- Sun Exposure
  WindExposed,                            !- Wind Exposure
  ,                                       !- View Factor to Ground
  ,                                       !- Number of Vertices
  0, 40, 3,                               !- X,Y,Z Vertex 1 {m}
  0, 40, 0,                               !- X,Y,Z Vertex 2 {m}
  0, 35, 0,                               !- X,Y,Z Vertex 3 {m}
  0, 35, 3;                               !- X,Y,Z Vertex 4 {m}

OS:Surface,
  {b46eaeb8-a09e-4a60-8fb2-57742fb89177}, !- Handle
  Surface 10,                             !- Name
  Wall,                                   !- Surface Type
  ,                                       !- Construction Name
  {1611b715-f42e-4209-9d60-b38e43c22943}, !- Space Name
  Outdoors,                               !- Outside Boundary Condition
  ,                                       !- Outside Boundary Condition Object
  SunExposed,                             !- Sun Exposure
  WindExposed,                            !- Wind Exposure
  ,                                       !- View Factor to Ground
  ,                                       !- Number of Vertices
  0, 45, 3,                               !- X,Y,Z Vertex 1 {m}
  0, 45, 0,                               !- X,Y,Z Vertex 2 {m}
  0, 40, 0,                               !- X,Y,Z Vertex 3 {m}
  0, 40, 3;                               !- X,Y,Z Vertex 4 {m}

OS:Surface,
  {5e126979-e23c-4de6-8b2b-dcb6bfa8150e}, !- Handle
  Surface 11,                             !- Name
  Wall,                                   !- Surface Type
  ,                                       !- Construction Name
  {1611b715-f42e-4209-9d60-b38e43c22943}, !- Space Name
  Outdoors,                               !- Outside Boundary Condition
  ,                                       !- Outside Boundary Condition Object
  SunExposed,                             !- Sun Exposure
  WindExposed,                            !- Wind Exposure
  ,                                       !- View Factor to Ground
  ,                                       !- Number of Vertices
  0, 50, 3,                               !- X,Y,Z Vertex 1 {m}
  0, 50, 0,                               !- X,Y,Z Vertex 2 {m}
  0, 45, 0,                               !- X,Y,Z Vertex 3 {m}
  0, 45, 3;                               !- X,Y,Z Vertex 4 {m}

OS:Surface,
  {33088dd6-3130-4670-85ab-adaa7d2ec2aa}, !- Handle
  Surface 12,                             !- Name
  Wall,                                   !- Surface Type
  ,                                       !- Construction Name
  {1611b715-f42e-4209-9d60-b38e43c22943}, !- Space Name
  Outdoors,                               !- Outside Boundary Condition
  ,                                       !- Outside Boundary Condition Object
  SunExposed,                             !- Sun Exposure
  WindExposed,                            !- Wind Exposure
  ,                                       !- View Factor to Ground
  ,                                       !- Number of Vertices
  5, 50, 3,                               !- X,Y,Z Vertex 1 {m}
  5, 50, 0,                               !- X,Y,Z Vertex 2 {m}
  0, 50, 0,                               !- X,Y,Z Vertex 3 {m}
  0, 50, 3;                               !- X,Y,Z Vertex 4 {m}

OS:Surface,
  {19613fd3-7c28-49f4-a79a-d4f030071578}, !- Handle
  Surface 13,                             !- Name
  Wall,                                   !- Surface Type
  ,                                       !- Construction Name
  {1611b715-f42e-4209-9d60-b38e43c22943}, !- Space Name
  Outdoors,                               !- Outside Boundary Condition
  ,                                       !- Outside Boundary Condition Object
  SunExposed,                             !- Sun Exposure
  WindExposed,                            !- Wind Exposure
  ,                                       !- View Factor to Ground
  ,                                       !- Number of Vertices
  10, 50, 3,                              !- X,Y,Z Vertex 1 {m}
  10, 50, 0,                              !- X,Y,Z Vertex 2 {m}
  5, 50, 0,                               !- X,Y,Z Vertex 3 {m}
  5, 50, 3;                               !- X,Y,Z Vertex 4 {m}

OS:Surface,
  {15a4a9b9-a35e-4554-bf8d-662a849acdca}, !- Handle
  Surface 14,                             !- Name
  Wall,                                   !- Surface Type
  ,                                       !- Construction Name
  {1611b715-f42e-4209-9d60-b38e43c22943}, !- Space Name
  Outdoors,                               !- Outside Boundary Condition
  ,                                       !- Outside Boundary Condition Object
  SunExposed,                             !- Sun Exposure
  WindExposed,                            !- Wind Exposure
  ,                                       !- View Factor to Ground
  ,                                       !- Number of Vertices
  15, 50, 3,                              !- X,Y,Z Vertex 1 {m}
  15, 50, 0,                              !- X,Y,Z Vertex 2 {m}
  10, 50, 0,                              !- X,Y,Z Vertex 3 {m}
  10, 50, 3;                              !- X,Y,Z Vertex 4 {m}

OS:Surface,
  {86c904c6-ca9e-4cd1-b83f-f7b6f227cc65}, !- Handle
  Surface 15,                             !- Name
  Wall,                                   !- Surface Type
  ,                                       !- Construction Name
  {1611b715-f42e-4209-9d60-b38e43c22943}, !- Space Name
  Outdoors,                               !- Outside Boundary Condition
  ,                                       !- Outside Boundary Condition Object
  SunExposed,                             !- Sun Exposure
  WindExposed,                            !- Wind Exposure
  ,                                       !- View Factor to Ground
  ,                                       !- Number of Vertices
  20, 50, 3,                              !- X,Y,Z Vertex 1 {m}
  20, 50, 0,                              !- X,Y,Z Vertex 2 {m}
  15, 50, 0,                              !- X,Y,Z Vertex 3 {m}
  15, 50, 3;                              !- X,Y,Z Vertex 4 {m}

OS:Surface,
  {11083420-f9ca-4922-a9ba-fc3ff4a2ed51}, !- Handle
  Surface 16,                             !- Name
  Wall,                                   !- Surface Type
  ,                                       !- Construction Name
  {1611b715-f42e-4209-9d60-b38e43c22943}, !- Space Name
  Outdoors,                               !- Outside Boundary Condition
  ,                                       !- Outside Boundary Condition Object
  SunExposed,                             !- Sun Exposure
  WindExposed,                            !- Wind Exposure
  ,                                       !- View Factor to Ground
  ,                                       !- Number of Vertices
  25, 50, 3,                              !- X,Y,Z Vertex 1 {m}
  25, 50, 0,                              !- X,Y,Z Vertex 2 {m}
  20, 50, 0,                              !- X,Y,Z Vertex 3 {m}
  20, 50, 3;                              !- X,Y,Z Vertex 4 {m}

OS:Surface,
  {85d4b2a6-4310-43bd-b752-685e07eafd51}, !- Handle
  Surface 17,                             !- Name
  Wall,                                   !- Surface Type
  ,                                       !- Construction Name
  {1611b715-f42e-4209-9d60-b38e43c22943}, !- Space Name
  Outdoors,                               !- Outside Boundary Condition
  ,                                       !- Outside Boundary Condition Object
  SunExposed,                             !- Sun Exposure
  WindExposed,                            !- Wind Exposure
  ,                                       !- View Factor to Ground
  ,                                       !- Number of Vertices
  30, 50, 3,                              !- X,Y,Z Vertex 1 {m}
  30, 50, 0,                              !- X,Y,Z Vertex 2 {m}
  25, 50, 0,                              !- X,Y,Z Vertex 3 {m}
  25, 50, 3;                              !- X,Y,Z Vertex 4 {m}

OS:Surface,
  {17ae6d85-3a4e-44b0-84c0-f2e19c3db8ae}, !- Handle
  Surface 18,                             !- Name
  Wall,                                   !- Surface Type
  ,                                       !- Construction Name
  {1611b715-f42e-4209-9d60-b38e43c22943}, !- Space Name
  Outdoors,                               !- Outside Boundary Condition
  ,                                       !- Outside Boundary Condition Object
  SunExposed,                             !- Sun Exposure
  WindExposed,                            !- Wind Exposure
  ,                                       !- View Factor to Ground
  ,                                       !- Number of Vertices
  35, 50, 3,                              !- X,Y,Z Vertex 1 {m}
  35, 50, 0,                              !- X,Y,Z Vertex 2 {m}
  30, 50, 0,                              !- X,Y,Z Vertex 3 {m}
  30, 50, 3;                              !- X,Y,Z Vertex 4 {m}

OS:Surface,
  {8361fc78-a570-4d3a-9e23-547387ab322c}, !- Handle
  Surface 19,                             !- Name
  Wall,                                   !- Surface Type
  ,                                       !- Construction Name
  {1611b715-f42e-4209-9d60-b38e43c22943}, !- Space Name
  Outdoors,                               !- Outside Boundary Condition
  ,                                       !- Outside Boundary Condition Object
  SunExposed,                             !- Sun Exposure
  WindExposed,                            !- Wind Exposure
  ,                                       !- View Factor to Ground
  ,                                       !- Number of Vertices
  40, 50, 3,                              !- X,Y,Z Vertex 1 {m}
  40, 50, 0,                              !- X,Y,Z Vertex 2 {m}
  35, 50, 0,                              !- X,Y,Z Vertex 3 {m}
  35, 50, 3;                              !- X,Y,Z Vertex 4 {m}

OS:Surface,
  {aca17827-f19a-4957-b06a-0c9816a03669}, !- Handle
  Surface 20,                             !- Name
  Wall,                                   !- Surface Type
  ,                                       !- Construction Name
  {1611b715-f42e-4209-9d60-b38e43c22943}, !- Space Name
  Outdoors,                               !- Outside Boundary Condition
  ,                                       !- Outside Boundary Condition Object
  SunExposed,                             !- Sun Exposure
  WindExposed,                            !- Wind Exposure
  ,                                       !- View Factor to Ground
  ,                                       !- Number of Vertices
  45, 50, 3,                              !- X,Y,Z Vertex 1 {m}
  45, 50, 0,                              !- X,Y,Z Vertex 2 {m}
  40, 50, 0,                              !- X,Y,Z Vertex 3 {m}
  40, 50, 3;                              !- X,Y,Z Vertex 4 {m}

OS:Surface,
  {765c4f41-5970-4f9b-a5c1-fe1e6e28ad18}, !- Handle
  Surface 21,                             !- Name
  Wall,                                   !- Surface Type
  ,                                       !- Construction Name
  {1611b715-f42e-4209-9d60-b38e43c22943}, !- Space Name
  Outdoors,                               !- Outside Boundary Condition
  ,                                       !- Outside Boundary Condition Object
  SunExposed,                             !- Sun Exposure
  WindExposed,                            !- Wind Exposure
  ,                                       !- View Factor to Ground
  ,                                       !- Number of Vertices
  50, 50, 3,                              !- X,Y,Z Vertex 1 {m}
  50, 50, 0,                              !- X,Y,Z Vertex 2 {m}
  45, 50, 0,                              !- X,Y,Z Vertex 3 {m}
  45, 50, 3;                              !- X,Y,Z Vertex 4 {m}

OS:Surface,
  {43db1ed4-e5d4-4a72-8cd3-4322c41d45b8}, !- Handle
  Surface 22,                             !- Name
  Wall,                                   !- Surface Type
  ,                                       !- Construction Name
  {1611b715-f42e-4209-9d60-b38e43c22943}, !- Space Name
  Outdoors,                               !- Outside Boundary Condition
  ,                                       !- Outside Boundary Condition Object
  SunExposed,                             !- Sun Exposure
  WindExposed,                            !- Wind Exposure
  ,                                       !- View Factor to Ground
  ,                                       !- Number of Vertices
  50, 45, 3,                              !- X,Y,Z Vertex 1 {m}
  50, 45, 0,                              !- X,Y,Z Vertex 2 {m}
  50, 50, 0,                              !- X,Y,Z Vertex 3 {m}
  50, 50, 3;                              !- X,Y,Z Vertex 4 {m}

OS:Surface,
  {87488063-fadf-47a0-82ba-255bb8fd9fd8}, !- Handle
  Surface 23,                             !- Name
  Wall,                                   !- Surface Type
  ,                                       !- Construction Name
  {1611b715-f42e-4209-9d60-b38e43c22943}, !- Space Name
  Outdoors,                               !- Outside Boundary Condition
  ,                                       !- Outside Boundary Condition Object
  SunExposed,                             !- Sun Exposure
  WindExposed,                            !- Wind Exposure
  ,                                       !- View Factor to Ground
  ,                                       !- Number of Vertices
  50, 40, 3,                              !- X,Y,Z Vertex 1 {m}
  50, 40, 0,                              !- X,Y,Z Vertex 2 {m}
  50, 45, 0,                              !- X,Y,Z Vertex 3 {m}
  50, 45, 3;                              !- X,Y,Z Vertex 4 {m}

OS:Surface,
  {a54eb361-6b00-4d82-9037-c6129779b639}, !- Handle
  Surface 24,                             !- Name
  Wall,                                   !- Surface Type
  ,                                       !- Construction Name
  {1611b715-f42e-4209-9d60-b38e43c22943}, !- Space Name
  Outdoors,                               !- Outside Boundary Condition
  ,                                       !- Outside Boundary Condition Object
  SunExposed,                             !- Sun Exposure
  WindExposed,                            !- Wind Exposure
  ,                                       !- View Factor to Ground
  ,                                       !- Number of Vertices
  50, 35, 3,                              !- X,Y,Z Vertex 1 {m}
  50, 35, 0,                              !- X,Y,Z Vertex 2 {m}
  50, 40, 0,                              !- X,Y,Z Vertex 3 {m}
  50, 40, 3;                              !- X,Y,Z Vertex 4 {m}

OS:Surface,
  {7d078e33-3082-4a50-a0dc-ee77c704b8dd}, !- Handle
  Surface 25,                             !- Name
  Wall,                                   !- Surface Type
  ,                                       !- Construction Name
  {1611b715-f42e-4209-9d60-b38e43c22943}, !- Space Name
  Outdoors,                               !- Outside Boundary Condition
  ,                                       !- Outside Boundary Condition Object
  SunExposed,                             !- Sun Exposure
  WindExposed,                            !- Wind Exposure
  ,                                       !- View Factor to Ground
  ,                                       !- Number of Vertices
  50, 30, 3,                              !- X,Y,Z Vertex 1 {m}
  50, 30, 0,                              !- X,Y,Z Vertex 2 {m}
  50, 35, 0,                              !- X,Y,Z Vertex 3 {m}
  50, 35, 3;                              !- X,Y,Z Vertex 4 {m}

OS:Surface,
  {d3aaa347-acd8-493f-82a3-7f2d187805c7}, !- Handle
  Surface 26,                             !- Name
  Wall,                                   !- Surface Type
  ,                                       !- Construction Name
  {1611b715-f42e-4209-9d60-b38e43c22943}, !- Space Name
  Outdoors,                               !- Outside Boundary Condition
  ,                                       !- Outside Boundary Condition Object
  SunExposed,                             !- Sun Exposure
  WindExposed,                            !- Wind Exposure
  ,                                       !- View Factor to Ground
  ,                                       !- Number of Vertices
  50, 25, 3,                              !- X,Y,Z Vertex 1 {m}
  50, 25, 0,                              !- X,Y,Z Vertex 2 {m}
  50, 30, 0,                              !- X,Y,Z Vertex 3 {m}
  50, 30, 3;                              !- X,Y,Z Vertex 4 {m}

OS:Surface,
  {a3103944-d9a4-470a-ad94-56b7cf202339}, !- Handle
  Surface 27,                             !- Name
  Wall,                                   !- Surface Type
  ,                                       !- Construction Name
  {1611b715-f42e-4209-9d60-b38e43c22943}, !- Space Name
  Outdoors,                               !- Outside Boundary Condition
  ,                                       !- Outside Boundary Condition Object
  SunExposed,                             !- Sun Exposure
  WindExposed,                            !- Wind Exposure
  ,                                       !- View Factor to Ground
  ,                                       !- Number of Vertices
  50, 20, 3,                              !- X,Y,Z Vertex 1 {m}
  50, 20, 0,                              !- X,Y,Z Vertex 2 {m}
  50, 25, 0,                              !- X,Y,Z Vertex 3 {m}
  50, 25, 3;                              !- X,Y,Z Vertex 4 {m}

OS:Surface,
  {d81d2279-5e21-43dc-994b-3340496b883a}, !- Handle
  Surface 28,                             !- Name
  Wall,                                   !- Surface Type
  ,                                       !- Construction Name
  {1611b715-f42e-4209-9d60-b38e43c22943}, !- Space Name
  Outdoors,                               !- Outside Boundary Condition
  ,                                       !- Outside Boundary Condition Object
  SunExposed,                             !- Sun Exposure
  WindExposed,                            !- Wind Exposure
  ,                                       !- View Factor to Ground
  ,                                       !- Number of Vertices
  50, 15, 3,                              !- X,Y,Z Vertex 1 {m}