
OS:Version,
  {104b3b3d-4f4a-461f-ba09-edfcdb46c750}, !- Handle
  1.6.0;                                  !- Version Identifier

OS:BuildingStory,
  {3a11c162-a8d1-4376-b59a-ce994a937cf9}, !- Handle
  Story 1,                                !- Name
  0,                                      !- Nominal Z Coordinate {m}
  1.2,                                    !- Nominal Floor to Floor Height {m}
  ,                                       !- Default Construction Set Name
  ,                                       !- Default Schedule Set Name
  ;                                       !- Group Rendering Name

OS:Space,
  {7b1fe081-5a3c-4576-819f-02ee952f0244}, !- Handle
  0 Core Space,                           !- Name
  ,                                       !- Space Type Name
  ,                                       !- Default Construction Set Name
  ,                                       !- Default Schedule Set Name
  -0,                                     !- Direction of Relative North {deg}
  0,                                      !- X Origin {m}
  0,                                      !- Y Origin {m}
  0,                                      !- Z Origin {m}
  {3a11c162-a8d1-4376-b59a-ce994a937cf9}, !- Building Story Name
  {2719e63c-a4b1-4a72-9b10-fdfa9fd0baf4}; !- Thermal Zone Name

OS:Surface,
  {c61bd312-2896-42f5-9ef6-0dcb4e8b1bbe}, !- Handle
  Surface 1,                              !- Name
  Floor,                                  !- Surface Type
  ,                                       !- Construction Name
  {7b1fe081-5a3c-4576-819f-02ee952f0244}, !- Space Name
  Ground,                                 !- Outside Boundary Condition
  ,                                       !- Outside Boundary Condition Object
  NoSun,                                  !- Sun Exposure
  NoWind,                                 !- Wind Exposure
  ,                                       !- View Factor to Ground
  ,                                       !- Number of Vertices
  0, 0, 0,                                !- X,Y,Z Vertex 1 {m}
  0, 5, 0,                                !- X,Y,Z Vertex 2 {m}
  0, 10, 0,                               !- X,Y,Z Vertex 3 {m}
  0, 15, 0,                               !- X,Y,Z Vertex 4 {m}
  0, 20, 0,                               !- X,Y,Z Vertex 5 {m}
  0, 25, 0,                               !- X,Y,Z Vertex 6 {m}
  0, 30, 0,                               !- X,Y,Z Vertex 7 {m}
  0, 35, 0,                               !- X,Y,Z Vertex 8 {m}
  0, 40, 0,                               !- X,Y,Z Vertex 9 {m}
  0, 45, 0,                               !- X,Y,Z Vertex 10 {m}
  0, 50, 0,                               !- X,Y,Z Vertex 11 {m}
  5, 50, 0,                               !- X,Y,Z Vertex 12 {m}
  10, 50, 0,                              !- X,Y,Z Vertex 13 {m}
  15, 50, 0,                              !- X,Y,Z Vertex 14 {m}
  20, 50, 0,                              !- X,Y,Z Vertex 15 {m}
  25, 50, 0,                              !- X,Y,Z Vertex 16 {m}
  30, 50, 0,                              !- X,Y,Z Vertex 17 {m}
  35, 50, 0,                              !- X,Y,Z Vertex 18 {m}
  40, 50, 0,                              !- X,Y,Z Vertex 19 {m}
  45, 50, 0,                              !- X,Y,Z Vertex 20 {m}
  50, 50, 0,                              !- X,Y,Z Vertex 21 {m}
  55, 50, 0,                              !- X,Y,Z Vertex 22 {m}
  60, 50, 0,                              !- X,Y,Z Vertex 23 {m}
  65, 50, 0,                              !- X,Y,Z Vertex 24 {m}
  70, 50, 0,                              !- X,Y,Z Vertex 25 {m}
  75, 50, 0,                              !- X,Y,Z Vertex 26 {m}
  80, 50, 0,                              !- X,Y,Z Vertex 27 {m}
  85, 50, 0,                              !- X,Y,Z Vertex 28 {m}
  90, 50, 0,                              !- X,Y,Z Vertex 29 {m}
  95, 50, 0,                              !- X,Y,Z Vertex 30 {m}
  100, 50, 0,                             !- X,Y,Z Vertex 31 {m}
  100, 45, 0,                             !- X,Y,Z Vertex 32 {m}
  100, 40, 0,                             !- X,Y,Z Vertex 33 {m}
  100, 35, 0,                             !- X,Y,Z Vertex 34 {m}
  100, 30, 0,                             !- X,Y,Z Vertex 35 {m}
  100, 25, 0,                             !- X,Y,Z Vertex 36 {m}
  100, 20, 0,                             !- X,Y,Z Vertex 37 {m}
  100, 15, 0,                             !- X,Y,Z Vertex 38 {m}
  100, 10, 0,                             !- X,Y,Z Vertex 39 {m}
  100, 5, 0,                              !- X,Y,Z Vertex 40 {m}
  100, 0, 0,                              !- X,Y,Z Vertex 41 {m}
  95, 0, 0,                               !- X,Y,Z Vertex 42 {m}
  90, 0, 0,                               !- X,Y,Z Vertex 43 {m}
  85, 0, 0,                               !- X,Y,Z Vertex 44 {m}
  80, 0, 0,                               !- X,Y,Z Vertex 45 {m}
  75, 0, 0,                               !- X,Y,Z Vertex 46 {m}
  70, 0, 0,                               !- X,Y,Z Vertex 47 {m}
  65, 0, 0,                               !- X,Y,Z Vertex 48 {m}
  60, 0, 0,                               !- X,Y,Z Vertex 49 {m}
  55, 0, 0,                               !- X,Y,Z Vertex 50 {m}
  50, 0, 0,                               !- X,Y,Z Vertex 51 {m}
  45, 0, 0,                               !- X,Y,Z Vertex 52 {m}
  40, 0, 0,                               !- X,Y,Z Vertex 53 {m}
  35, 0, 0,                               !- X,Y,Z Vertex 54 {m}
  30, 0, 0,                               !- X,Y,Z Vertex 55 {m}
  25, 0, 0,                               !- X,Y,Z Vertex 56 {m}
  20, 0, 0,                               !- X,Y,Z Vertex 57 {m}
  15, 0, 0,                               !- X,Y,Z Vertex 58 {m}
  10, 0, 0,                               !- X,Y,Z Vertex 59 {m}
  5, 0, 0;                                !- X,Y,Z Vertex 60 {m}

OS:Surface,
  {c99ea887-4df5-4f83-85eb-7360b131cbda}, !- Handle
  Surface 2,                              !- Name
  Wall,                                   !- Surface Type
  ,                                       !- Construction Name
  {7b1fe081-5a3c-4576-819f-02ee952f0244}, !- Space Name
  Outdoors,                               !- Outside Boundary Condition
  ,                                       !- Outside Boundary Condition Object
  SunExposed,                             !- Sun Exposure
  WindExposed,                            !- Wind Exposure
  ,                                       !- View Factor to Ground
  ,                                       !- Number of Vertices
  0, 5, 1.2,                              !- X,Y,Z Vertex 1 {m}
  0, 5, 0,                                !- X,Y,Z Vertex 2 {m}
  0, 0, 0,                                !- X,Y,Z Vertex 3 {m}
  0, 0, 1.2;                              !- X,Y,Z Vertex 4 {m}

OS:Surface,
  {0843bb69-4f55-416a-a346-c3182526797a}, !- Handle
  Surface 3,                              !- Name
  Wall,                                   !- Surface Type
  ,                                       !- Construction Name
  {7b1fe081-5a3c-4576-819f-02ee952f0244}, !- Space Name
  Outdoors,                               !- Outside Boundary Condition
  ,                                       !- Outside Boundary Condition Object
  SunExposed,                             !- Sun Exposure
  WindExposed,                            !- Wind Exposure
  ,                                       !- View Factor to Ground
  ,                                       !- Number of Vertices
  0, 10, 1.2,                             !- X,Y,Z Vertex 1 {m}
  0, 10, 0,                               !- X,Y,Z Vertex 2 {m}
  0, 5, 0,                                !- X,Y,Z Vertex 3 {m}
  0, 5, 1.2;                              !- X,Y,Z Vertex 4 {m}

OS:Surface,
  {c2cb61cb-418a-4625-8f4f-4ecb27649dc8}, !- Handle
  Surface 4,                              !- Name
  Wall,                                   !- Surface Type
  ,                                       !- Construction Name
  {7b1fe081-5a3c-4576-819f-02ee952f0244}, !- Space Name
  Outdoors,                               !- Outside Boundary Condition
  ,                                       !- Outside Boundary Condition Object
  SunExposed,                             !- Sun Exposure
  WindExposed,                            !- Wind Exposure
  ,                                       !- View Factor to Ground
  ,                                       !- Number of Vertices
  0, 15, 1.2,                             !- X,Y,Z Vertex 1 {m}
  0, 15, 0,                               !- X,Y,Z Vertex 2 {m}
  0, 10, 0,                               !- X,Y,Z Vertex 3 {m}
  0, 10, 1.2;                             !- X,Y,Z Vertex 4 {m}

OS:Surface,
  {181a6b82-4784-4636-9e51-9ef45c984029}, !- Handle
  Surface 5,                              !- Name
  Wall,                                   !- Surface Type
  ,                                       !- Construction Name
  {7b1fe081-5a3c-4576-819f-02ee952f0244}, !- Space Name
  Outdoors,                               !- Outside Boundary Condition
  ,                                       !- Outside Boundary Condition Object
  SunExposed,                             !- Sun Exposure
  WindExposed,                            !- Wind Exposure
  ,                                       !- View Factor to Ground
  ,                                       !- Number of Vertices
  0, 20, 1.2,                             !- X,Y,Z Vertex 1 {m}
  0, 20, 0,                               !- X,Y,Z Vertex 2 {m}
  0, 15, 0,                               !- X,Y,Z Vertex 3 {m}
  0, 15, 1.2;                             !- X,Y,Z Vertex 4 {m}

OS:Surface,
  {8080f8a7-bc72-4089-a5b5-d983591638b0}, !- Handle
  Surface 6,                              !- Name
  Wall,                                   !- Surface Type
  ,                                       !- Construction Name
  {7b1fe081-5a3c-4576-819f-02ee952f0244}, !- Space Name
  Outdoors,                               !- Outside Boundary Condition
  ,                                       !- Outside Boundary Condition Object
  SunExposed,                             !- Sun Exposure
  WindExposed,                            !- Wind Exposure
  ,                                       !- View Factor to Ground
  ,                                       !- Number of Vertices
  0, 25, 1.2,                             !- X,Y,Z Vertex 1 {m}
  0, 25, 0,                               !- X,Y,Z Vertex 2 {m}
  0, 20, 0,                               !- X,Y,Z Vertex 3 {m}
  0, 20, 1.2;                             !- X,Y,Z Vertex 4 {m}

OS:Surface,
  {fe64adf0-1df0-42e8-a02e-83b713806e32}, !- Handle
  Surface 7,                              !- Name
  Wall,                                   !- Surface Type
  ,                                       !- Construction Name
  {7b1fe081-5a3c-4576-819f-02ee952f0244}, !- Space Name
  Outdoors,                               !- Outside Boundary Condition
  ,                                       !- Outside Boundary Condition Object
  SunExposed,                             !- Sun Exposure
  WindExposed,                            !- Wind Exposure
  ,                                       !- View Factor to Ground
  ,                                       !- Number of Vertices
  0, 30, 1.2,                             !- X,Y,Z Vertex 1 {m}
  0, 30, 0,                               !- X,Y,Z Vertex 2 {m}
  0, 25, 0,                               !- X,Y,Z Vertex 3 {m}
  0, 25, 1.2;                             !- X,Y,Z Vertex 4 {m}

OS:Surface,
  {d1252d40-347c-44ca-aa7c-2c859ea3ccb7}, !- Handle
  Surface 8,                              !- Name
  Wall,                                   !- Surface Type
  ,                                       !- Construction Name
  {7b1fe081-5a3c-4576-819f-02ee952f0244}, !- Space Name
  Outdoors,                               !- Outside Boundary Condition
  ,                                       !- Outside Boundary Condition Object
  SunExposed,                             !- Sun Exposure
  WindExposed,                            !- Wind Exposure
  ,                                       !- View Factor to Ground
  ,                                       !- Number of Vertices
  0, 35, 1.2,                             !- X,Y,Z Vertex 1 {m}
  0, 35, 0,                               !- X,Y,Z Vertex 2 {m}
  0, 30, 0,                               !- X,Y,Z Vertex 3 {m}
  0, 30, 1.2;                             !- X,Y,Z Vertex 4 {m}

OS:Surface,
  {73dfd222-d5b7-4059-8ca7-1141e96f0261}, !- Handle
  Surface 9,                              !- Name
  Wall,                                   !- Surface Type
  ,                                       !- Construction Name
  {7b1fe081-5a3c-4576-819f-02ee952f0244}, !- Space Name
  Outdoors,                               !- Outside Boundary Condition
  ,                                       !- Outside Boundary Condition Object
  SunExposed,                             !- Sun Exposure
  WindExposed,                            !- Wind Exposure
  ,                                       !- View Factor to Ground
  ,                                       !- Number of Vertices
  0, 40, 1.2,                             !- X,Y,Z Vertex 1 {m}
  0, 40, 0,                               !- X,Y,Z Vertex 2 {m}
  0, 35, 0,                               !- X,Y,Z Vertex 3 {m}
  0, 35, 1.2;                             !- X,Y,Z Vertex 4 {m}

OS:Surface,
  {2f088137-f63e-484f-b100-056d7d220e11}, !- Handle
  Surface 10,                             !- Name
  Wall,                                   !- Surface Type
  ,                                       !- Construction Name
  {7b1fe081-5a3c-4576-819f-02ee952f0244}, !- Space Name
  Outdoors,                               !- Outside Boundary Condition
  ,                                       !- Outside Boundary Condition Object
  SunExposed,                             !- Sun Exposure
  WindExposed,                            !- Wind Exposure
  ,                                       !- View Factor to Ground
  ,                                       !- Number of Vertices
  0, 45, 1.2,                             !- X,Y,Z Vertex 1 {m}
  0, 45, 0,                               !- X,Y,Z Vertex 2 {m}
  0, 40, 0,                               !- X,Y,Z Vertex 3 {m}
  0, 40, 1.2;                             !- X,Y,Z Vertex 4 {m}

OS:Surface,
  {d2fb2475-1cf2-4453-b0ad-19435a54370a}, !- Handle
  Surface 11,                             !- Name
  Wall,                                   !- Surface Type
  ,                                       !- Construction Name
  {7b1fe081-5a3c-4576-819f-02ee952f0244}, !- Space Name
  Outdoors,                               !- Outside Boundary Condition
  ,                                       !- Outside Boundary Condition Object
  SunExposed,                             !- Sun Exposure
  WindExposed,                            !- Wind Exposure
  ,                                       !- View Factor to Ground
  ,                                       !- Number of Vertices
  0, 50, 1.2,                             !- X,Y,Z Vertex 1 {m}
  0, 50, 0,                               !- X,Y,Z Vertex 2 {m}
  0, 45, 0,                               !- X,Y,Z Vertex 3 {m}
  0, 45, 1.2;                             !- X,Y,Z Vertex 4 {m}

OS:Surface,
  {dbc6fefa-b1c8-4b25-be6b-6e54ff995b92}, !- Handle
  Surface 12,                             !- Name
  Wall,                                   !- Surface Type
  ,                                       !- Construction Name
  {7b1fe081-5a3c-4576-819f-02ee952f0244}, !- Space Name
  Outdoors,                               !- Outside Boundary Condition
  ,                                       !- Outside Boundary Condition Object
  SunExposed,                             !- Sun Exposure
  WindExposed,                            !- Wind Exposure
  ,                                       !- View Factor to Ground
  ,                                       !- Number of Vertices
  5, 50, 1.2,                             !- X,Y,Z Vertex 1 {m}
  5, 50, 0,                               !- X,Y,Z Vertex 2 {m}
  0, 50, 0,                               !- X,Y,Z Vertex 3 {m}
  0, 50, 1.2;                             !- X,Y,Z Vertex 4 {m}

OS:Surface,
  {10cb97f0-98c1-45a0-ad80-685a883e0da0}, !- Handle
  Surface 13,                             !- Name
  Wall,                                   !- Surface Type
  ,                                       !- Construction Name
  {7b1fe081-5a3c-4576-819f-02ee952f0244}, !- Space Name
  Outdoors,                               !- Outside Boundary Condition
  ,                                       !- Outside Boundary Condition Object
  SunExposed,                             !- Sun Exposure
  WindExposed,                            !- Wind Exposure
  ,                                       !- View Factor to Ground
  ,                                       !- Number of Vertices
  10, 50, 1.2,                            !- X,Y,Z Vertex 1 {m}
  10, 50, 0,                              !- X,Y,Z Vertex 2 {m}
  5, 50, 0,                               !- X,Y,Z Vertex 3 {m}
  5, 50, 1.2;                             !- X,Y,Z Vertex 4 {m}

OS:Surface,
  {a4e62d7f-a8f6-4c95-b119-f8b5093d90b0}, !- Handle
  Surface 14,                             !- Name
  Wall,                                   !- Surface Type
  ,                                       !- Construction Name
  {7b1fe081-5a3c-4576-819f-02ee952f0244}, !- Space Name
  Outdoors,                               !- Outside Boundary Condition
  ,                                       !- Outside Boundary Condition Object
  SunExposed,                             !- Sun Exposure
  WindExposed,                            !- Wind Exposure
  ,                                       !- View Factor to Ground
  ,                                       !- Number of Vertices
  15, 50, 1.2,                            !- X,Y,Z Vertex 1 {m}
  15, 50, 0,                              !- X,Y,Z Vertex 2 {m}
  10, 50, 0,                              !- X,Y,Z Vertex 3 {m}
  10, 50, 1.2;                            !- X,Y,Z Vertex 4 {m}

OS:Surface,
  {842d347b-39dd-4d25-a822-e04769f4dc37}, !- Handle
  Surface 15,                             !- Name
  Wall,                                   !- Surface Type
  ,                                       !- Construction Name
  {7b1fe081-5a3c-4576-819f-02ee952f0244}, !- Space Name
  Outdoors,                               !- Outside Boundary Condition
  ,                                       !- Outside Boundary Condition Object
  SunExposed,                             !- Sun Exposure
  WindExposed,                            !- Wind Exposure
  ,                                       !- View Factor to Ground
  ,                                       !- Number of Vertices
  20, 50, 1.2,                            !- X,Y,Z Vertex 1 {m}
  20, 50, 0,                              !- X,Y,Z Vertex 2 {m}
  15, 50, 0,                              !- X,Y,Z Vertex 3 {m}
  15, 50, 1.2;                            !- X,Y,Z Vertex 4 {m}

OS:Surface,
  {2a084b0c-817d-4b1a-8510-0f7cf16d7eb7}, !- Handle
  Surface 16,                             !- Name
  Wall,                                   !- Surface Type
  ,                                       !- Construction Name
  {7b1fe081-5a3c-4576-819f-02ee952f0244}, !- Space Name
  Outdoors,                               !- Outside Boundary Condition
  ,                                       !- Outside Boundary Condition Object
  SunExposed,                             !- Sun Exposure
  WindExposed,                            !- Wind Exposure
  ,                                       !- View Factor to Ground
  ,                                       !- Number of Vertices
  25, 50, 1.2,                            !- X,Y,Z Vertex 1 {m}
  25, 50, 0,                              !- X,Y,Z Vertex 2 {m}
  20, 50, 0,                              !- X,Y,Z Vertex 3 {m}
  20, 50, 1.2;                            !- X,Y,Z Vertex 4 {m}

OS:Surface,
  {d37bcac7-bc20-428e-b19a-c8b2be72cf96}, !- Handle
  Surface 17,                             !- Name
  Wall,                                   !- Surface Type
  ,                                       !- Construction Name
  {7b1fe081-5a3c-4576-819f-02ee952f0244}, !- Space Name
  Outdoors,                               !- Outside Boundary Condition
  ,                                       !- Outside Boundary Condition Object
  SunExposed,                             !- Sun Exposure
  WindExposed,                            !- Wind Exposure
  ,                                       !- View Factor to Ground
  ,                                       !- Number of Vertices
  30, 50, 1.2,                            !- X,Y,Z Vertex 1 {m}
  30, 50, 0,                              !- X,Y,Z Vertex 2 {m}
  25, 50, 0,                              !- X,Y,Z Vertex 3 {m}
  25, 50, 1.2;                            !- X,Y,Z Vertex 4 {m}

OS:Surface,
  {c289f7e0-edbc-4c72-a070-03b6bc35ebb3}, !- Handle
  Surface 18,                             !- Name
  Wall,                                   !- Surface Type
  ,                                       !- Construction Name
  {7b1fe081-5a3c-4576-819f-02ee952f0244}, !- Space Name
  Outdoors,                               !- Outside Boundary Condition
  ,                                       !- Outside Boundary Condition Object
  SunExposed,                             !- Sun Exposure
  WindExposed,                            !- Wind Exposure
  ,                                       !- View Factor to Ground
  ,                                       !- Number of Vertices
  35, 50, 1.2,                            !- X,Y,Z Vertex 1 {m}
  35, 50, 0,                              !- X,Y,Z Vertex 2 {m}
  30, 50, 0,                              !- X,Y,Z Vertex 3 {m}
  30, 50, 1.2;                            !- X,Y,Z Vertex 4 {m}

OS:Surface,
  {25135691-b95d-4a36-b6c7-307e03b4c097}, !- Handle
  Surface 19,                             !- Name
  Wall,                                   !- Surface Type
  ,                                       !- Construction Name
  {7b1fe081-5a3c-4576-819f-02ee952f0244}, !- Space Name
  Outdoors,                               !- Outside Boundary Condition
  ,                                       !- Outside Boundary Condition Object
  SunExposed,                             !- Sun Exposure
  WindExposed,                            !- Wind Exposure
  ,                                       !- View Factor to Ground
  ,                                       !- Number of Vertices
  40, 50, 1.2,                            !- X,Y,Z Vertex 1 {m}
  40, 50, 0,                              !- X,Y,Z Vertex 2 {m}
  35, 50, 0,                              !- X,Y,Z Vertex 3 {m}
  35, 50, 1.2;                            !- X,Y,Z Vertex 4 {m}

OS:Surface,
  {212dbb7a-e3f3-466c-af80-0916f1eaa842}, !- Handle
  Surface 20,                             !- Name
  Wall,                                   !- Surface Type
  ,                                       !- Construction Name
  {7b1fe081-5a3c-4576-819f-02ee952f0244}, !- Space Name
  Outdoors,                               !- Outside Boundary Condition
  ,                                       !- Outside Boundary Condition Object
  SunExposed,                             !- Sun Exposure
  WindExposed,                            !- Wind Exposure
  ,                                       !- View Factor to Ground
  ,                                       !- Number of Vertices
  45, 50, 1.2,                            !- X,Y,Z Vertex 1 {m}
  45, 50, 0,                              !- X,Y,Z Vertex 2 {m}
  40, 50, 0,                              !- X,Y,Z Vertex 3 {m}
  40, 50, 1.2;                            !- X,Y,Z Vertex 4 {m}

OS:Surface,
  {69cffa91-2444-4509-89aa-64c31e885c86}, !- Handle
  Surface 21,                             !- Name
  Wall,                                   !- Surface Type
  ,                                       !- Construction Name
  {7b1fe081-5a3c-4576-819f-02ee952f0244}, !- Space Name
  Outdoors,                               !- Outside Boundary Condition
  ,                                       !- Outside Boundary Condition Object
  SunExposed,                             !- Sun Exposure
  WindExposed,                            !- Wind Exposure
  ,                                       !- View Factor to Ground
  ,                                       !- Number of Vertices
  50, 50, 1.2,                            !- X,Y,Z Vertex 1 {m}
  50, 50, 0,                              !- X,Y,Z Vertex 2 {m}
  45, 50, 0,                              !- X,Y,Z Vertex 3 {m}
  45, 50, 1.2;                            !- X,Y,Z Vertex 4 {m}

OS:Surface,
  {b92abed6-af61-4d5c-bef6-14e306703afc}, !- Handle
  Surface 22,                             !- Name
  Wall,                                   !- Surface Type
  ,                                       !- Construction Name
  {7b1fe081-5a3c-4576-819f-02ee952f0244}, !- Space Name
  Outdoors,                               !- Outside Boundary Condition
  ,                                       !- Outside Boundary Condition Object
  SunExposed,                             !- Sun Exposure
  WindExposed,                            !- Wind Exposure
  ,                                       !- View Factor to Ground
  ,                                       !- Number of Vertices
  55, 50, 1.2,                            !- X,Y,Z Vertex 1 {m}
  55, 50, 0,                              !- X,Y,Z Vertex 2 {m}
  50, 50, 0,                              !- X,Y,Z Vertex 3 {m}
  50, 50, 1.2;                            !- X,Y,Z Vertex 4 {m}

OS:Surface,
  {e23c0606-bc9a-466c-ab37-ccf91936f13f}, !- Handle
  Surface 23,                             !- Name
  Wall,                                   !- Surface Type
  ,                                       !- Construction Name
  {7b1fe081-5a3c-4576-819f-02ee952f0244}, !- Space Name
  Outdoors,                               !- Outside Boundary Condition
  ,                                       !- Outside Boundary Condition Object
  SunExposed,                             !- Sun Exposure
  WindExposed,                            !- Wind Exposure
  ,                                       !- View Factor to Ground
  ,                                       !- Number of Vertices
  60, 50, 1.2,                            !- X,Y,Z Vertex 1 {m}
  60, 50, 0,                              !- X,Y,Z Vertex 2 {m}
  55, 50, 0,                              !- X,Y,Z Vertex 3 {m}
  55, 50, 1.2;                            !- X,Y,Z Vertex 4 {m}

OS:Surface,
  {9060447a-204f-44c8-9382-eefd7a279f82}, !- Handle
  Surface 24,                             !- Name
  Wall,                                   !- Surface Type
  ,                                       !- Construction Name
  {7b1fe081-5a3c-4576-819f-02ee952f0244}, !- Space Name
  Outdoors,                               !- Outside Boundary Condition
  ,                                       !- Outside Boundary Condition Object
  SunExposed,                             !- Sun Exposure
  WindExposed,                            !- Wind Exposure
  ,                                       !- View Factor to Ground
  ,                                       !- Number of Vertices
  65, 50, 1.2,                            !- X,Y,Z Vertex 1 {m}
  65, 50, 0,                              !- X,Y,Z Vertex 2 {m}
  60, 50, 0,                              !- X,Y,Z Vertex 3 {m}
  60, 50, 1.2;                            !- X,Y,Z Vertex 4 {m}

OS:Surface,
  {359cdc92-3ed2-4615-95fd-6e82c045b296}, !- Handle
  Surface 25,                             !- Name
  Wall,                                   !- Surface Type
  ,                                       !- Construction Name
  {7b1fe081-5a3c-4576-819f-02ee952f0244}, !- Space Name
  Outdoors,                               !- Outside Boundary Condition
  ,                                       !- Outside Boundary Condition Object
  SunExposed,                             !- Sun Exposure
  WindExposed,                            !- Wind Exposure
  ,                                       !- View Factor to Ground
  ,                                       !- Number of Vertices
  70, 50, 1.2,                            !- X,Y,Z Vertex 1 {m}
  70, 50, 0,                              !- X,Y,Z Vertex 2 {m}
  65, 50, 0,                              !- X,Y,Z Vertex 3 {m}
  65, 50, 1.2;                            !- X,Y,Z Vertex 4 {m}

OS:Surface,
  {bb0ac89b-da4e-4e46-acdb-5edf0912942d}, !- Handle
  Surface 26,                             !- Name
  Wall,                                   !- Surface Type
  ,                                       !- Construction Name
  {7b1fe081-5a3c-4576-819f-02ee952f0244}, !- Space Name
  Outdoors,                               !- Outside Boundary Condition
  ,                                       !- Outside Boundary Condition Object
  SunExposed,                             !- Sun Exposure
  WindExposed,                            !- Wind Exposure
  ,                                       !- View Factor to Ground
  ,                                       !- Number of Vertices
  75, 50, 1.2,                            !- X,Y,Z Vertex 1 {m}
  75, 50, 0,                              !- X,Y,Z Vertex 2 {m}
  70, 50, 0,                              !- X,Y,Z Vertex 3 {m}
  70, 50, 1.2;                            !- X,Y,Z Vertex 4 {m}

OS:Surface,
  {feee7a2d-e2ff-4cf4-b0fd-1cd1945c8be0}, !- Handle
  Surface 27,                             !- Name
  Wall,                                   !- Surface Type
  ,                                       !- Construction Name
  {7b1fe081-5a3c-4576-819f-02ee952f0244}, !- Space Name
  Outdoors,                               !- Outside Boundary Condition