
OS:Version,
  {cd28637d-3584-49de-a638-048a09577960}, !- Handle
  1.6.0;                                  !- Version Identifier

OS:BuildingStory,
  {ab7a9a1d-ddf0-4886-bb5e-8ab61b25e0bb}, !- Handle
  Story 1,                                !- Name
  0,                                      !- Nominal Z Coordinate {m}
  1.2,                                    !- Nominal Floor to Floor Height {m}
  ,                                       !- Default Construction Set Name
  ,                                       !- Default Schedule Set Name
  {7e4fdd53-40bd-48a8-a1dd-bd32ae5588fb}; !- Group Rendering Name

OS:Space,
  {58017acd-4ddf-461c-9986-26d78c5ddca1}, !- Handle
  0 Core Space,                           !- Name
  ,                                       !- Space Type Name
  ,                                       !- Default Construction Set Name
  ,                                       !- Default Schedule Set Name
  -0,                                     !- Direction of Relative North {deg}
  0,                                      !- X Origin {m}
  0,                                      !- Y Origin {m}
  0,                                      !- Z Origin {m}
  {ab7a9a1d-ddf0-4886-bb5e-8ab61b25e0bb}, !- Building Story Name
  {6e73f24c-9217-40aa-b00a-a51de3520a66}; !- Thermal Zone Name

OS:Surface,
  {73670edc-36e5-4042-bdd3-4abd9ab30e70}, !- Handle
  Surface 1,                              !- Name
  Floor,                                  !- Surface Type
  ,                                       !- Construction Name
  {58017acd-4ddf-461c-9986-26d78c5ddca1}, !- Space Name
  Ground,                                 !- Outside Boundary Condition
  ,                                       !- Outside Boundary Condition Object
  NoSun,                                  !- Sun Exposure
  NoWind,                                 !- Wind Exposure
  ,                                       !- View Factor to Ground
  ,                                       !- Number of Vertices
  100, 50, 0,                             !- X,Y,Z Vertex 1 {m}
  100, 0, 0,                              !- X,Y,Z Vertex 2 {m}
  0, 0, 0,                                !- X,Y,Z Vertex 3 {m}
  0, 50, 0;                               !- X,Y,Z Vertex 4 {m}

OS:Surface,
  {c2ff8c0f-3add-450c-a21e-e5ea0ce2d7d9}, !- Handle
  Surface 2,                              !- Name
  Wall,                                   !- Surface Type
  ,                                       !- Construction Name
  {58017acd-4ddf-461c-9986-26d78c5ddca1}, !- Space Name
  Outdoors,                               !- Outside Boundary Condition
  ,                                       !- Outside Boundary Condition Object
  SunExposed,                             !- Sun Exposure
  WindExposed,                            !- Wind Exposure
  ,                                       !- View Factor to Ground
  ,                                       !- Number of Vertices
  0, 5, 1.2,                              !- X,Y,Z Vertex 1 {m}
  0, 5, 0,                                !- X,Y,Z Vertex 2 {m}
  0, 0, 0,                                !- X,Y,Z Vertex 3 {m}
  0, 0, 1.2;                              !- X,Y,Z Vertex 4 {m}

OS:Surface,
  {05c69a12-cf4f-4ca9-b522-3a2f3bbdad1a}, !- Handle
  Surface 3,                              !- Name
  Wall,                                   !- Surface Type
  ,                                       !- Construction Name
  {58017acd-4ddf-461c-9986-26d78c5ddca1}, !- Space Name
  Outdoors,                               !- Outside Boundary Condition
  ,                                       !- Outside Boundary Condition Object
  SunExposed,                             !- Sun Exposure
  WindExposed,                            !- Wind Exposure
  ,                                       !- View Factor to Ground
  ,                                       !- Number of Vertices
  0, 10, 1.2,                             !- X,Y,Z Vertex 1 {m}
  0, 10, 0,                               !- X,Y,Z Vertex 2 {m}
  0, 5, 0,                                !- X,Y,Z Vertex 3 {m}
  0, 5, 1.2;                              !- X,Y,Z Vertex 4 {m}

OS:Surface,
  {dcbee63d-c1d0-4e82-be64-25565e5d9b8a}, !- Handle
  Surface 4,                              !- Name
  Wall,                                   !- Surface Type
  ,                                       !- Construction Name
  {58017acd-4ddf-461c-9986-26d78c5ddca1}, !- Space Name
  Outdoors,                               !- Outside Boundary Condition
  ,                                       !- Outside Boundary Condition Object
  SunExposed,                             !- Sun Exposure
  WindExposed,                            !- Wind Exposure
  ,                                       !- View Factor to Ground
  ,                                       !- Number of Vertices
  0, 15, 1.2,                             !- X,Y,Z Vertex 1 {m}
  0, 15, 0,                               !- X,Y,Z Vertex 2 {m}
  0, 10, 0,                               !- X,Y,Z Vertex 3 {m}
  0, 10, 1.2;                             !- X,Y,Z Vertex 4 {m}

OS:Surface,
  {bfee90ef-797e-416e-a08b-51e5a40053db}, !- Handle
  Surface 5,                              !- Name
  Wall,                                   !- Surface Type
  ,                                       !- Construction Name
  {58017acd-4ddf-461c-9986-26d78c5ddca1}, !- Space Name
  Outdoors,                               !- Outside Boundary Condition
  ,                                       !- Outside Boundary Condition Object
  SunExposed,                             !- Sun Exposure
  WindExposed,                            !- Wind Exposure
  ,                                       !- View Factor to Ground
  ,                                       !- Number of Vertices
  0, 20, 1.2,                             !- X,Y,Z Vertex 1 {m}
  0, 20, 0,                               !- X,Y,Z Vertex 2 {m}
  0, 15, 0,                               !- X,Y,Z Vertex 3 {m}
  0, 15, 1.2;                             !- X,Y,Z Vertex 4 {m}

OS:Surface,
  {0c590ee9-7ec7-4212-8e83-9daae821d86a}, !- Handle
  Surface 6,                              !- Name
  Wall,                                   !- Surface Type
  ,                                       !- Construction Name
  {58017acd-4ddf-461c-9986-26d78c5ddca1}, !- Space Name
  Outdoors,                               !- Outside Boundary Condition
  ,                                       !- Outside Boundary Condition Object
  SunExposed,                             !- Sun Exposure
  WindExposed,                            !- Wind Exposure
  ,                                       !- View Factor to Ground
  ,                                       !- Number of Vertices
  0, 25, 1.2,                             !- X,Y,Z Vertex 1 {m}
  0, 25, 0,                               !- X,Y,Z Vertex 2 {m}
  0, 20, 0,                               !- X,Y,Z Vertex 3 {m}
  0, 20, 1.2;                             !- X,Y,Z Vertex 4 {m}

OS:Surface,
  {a67c6ba8-8e7f-42f0-afba-39740ed7f701}, !- Handle
  Surface 7,                              !- Name
  Wall,                                   !- Surface Type
  ,                                       !- Construction Name
  {58017acd-4ddf-461c-9986-26d78c5ddca1}, !- Space Name
  Outdoors,                               !- Outside Boundary Condition
  ,                                       !- Outside Boundary Condition Object
  SunExposed,                             !- Sun Exposure
  WindExposed,                            !- Wind Exposure
  ,                                       !- View Factor to Ground
  ,                                       !- Number of Vertices
  0, 30, 1.2,                             !- X,Y,Z Vertex 1 {m}
  0, 30, 0,                               !- X,Y,Z Vertex 2 {m}
  0, 25, 0,                               !- X,Y,Z Vertex 3 {m}
  0, 25, 1.2;                             !- X,Y,Z Vertex 4 {m}

OS:Surface,
  {498e26e6-3703-4fa9-894e-ebce83637c08}, !- Handle
  Surface 8,                              !- Name
  Wall,                                   !- Surface Type
  ,                                       !- Construction Name
  {58017acd-4ddf-461c-9986-26d78c5ddca1}, !- Space Name
  Outdoors,                               !- Outside Boundary Condition
  ,                                       !- Outside Boundary Condition Object
  SunExposed,                             !- Sun Exposure
  WindExposed,                            !- Wind Exposure
  ,                                       !- View Factor to Ground
  ,                                       !- Number of Vertices
  0, 35, 1.2,                             !- X,Y,Z Vertex 1 {m}
  0, 35, 0,                               !- X,Y,Z Vertex 2 {m}
  0, 30, 0,                               !- X,Y,Z Vertex 3 {m}
  0, 30, 1.2;                             !- X,Y,Z Vertex 4 {m}

OS:Surface,
  {6b7a550e-6eac-4be6-8dd1-bd24d7fdb604}, !- Handle
  Surface 9,                              !- Name
  Wall,                                   !- Surface Type
  ,                                       !- Construction Name
  {58017acd-4ddf-461c-9986-26d78c5ddca1}, !- Space Name
  Outdoors,                               !- Outside Boundary Condition
  ,                                       !- Outside Boundary Condition Object
  SunExposed,                             !- Sun Exposure
  WindExposed,                            !- Wind Exposure
  ,                                       !- View Factor to Ground
  ,                                       !- Number of Vertices
  0, 40, 1.2,                             !- X,Y,Z Vertex 1 {m}
  0, 40, 0,                               !- X,Y,Z Vertex 2 {m}
  0, 35, 0,                               !- X,Y,Z Vertex 3 {m}
  0, 35, 1.2;                             !- X,Y,Z Vertex 4 {m}

OS:Surface,
  {ed88a640-ee15-44c5-a1c9-d3e21f31365b}, !- Handle
  Surface 10,                             !- Name
  Wall,                                   !- Surface Type
  ,                                       !- Construction Name
  {58017acd-4ddf-461c-9986-26d78c5ddca1}, !- Space Name
  Outdoors,                               !- Outside Boundary Condition
  ,                                       !- Outside Boundary Condition Object
  SunExposed,                             !- Sun Exposure
  WindExposed,                            !- Wind Exposure
  ,                                       !- View Factor to Ground
  ,                                       !- Number of Vertices
  0, 45, 1.2,                             !- X,Y,Z Vertex 1 {m}
  0, 45, 0,                               !- X,Y,Z Vertex 2 {m}
  0, 40, 0,                               !- X,Y,Z Vertex 3 {m}
  0, 40, 1.2;                             !- X,Y,Z Vertex 4 {m}

OS:Surface,
  {c36ac5f1-f92d-4a93-9f27-1d2aa1400067}, !- Handle
  Surface 11,                             !- Name
  Wall,                                   !- Surface Type
  ,                                       !- Construction Name
  {58017acd-4ddf-461c-9986-26d78c5ddca1}, !- Space Name
  Outdoors,                               !- Outside Boundary Condition
  ,                                       !- Outside Boundary Condition Object
  SunExposed,                             !- Sun Exposure
  WindExposed,                            !- Wind Exposure
  ,                                       !- View Factor to Ground
  ,                                       !- Number of Vertices
  0, 50, 1.2,                             !- X,Y,Z Vertex 1 {m}
  0, 50, 0,                               !- X,Y,Z Vertex 2 {m}
  0, 45, 0,                               !- X,Y,Z Vertex 3 {m}
  0, 45, 1.2;                             !- X,Y,Z Vertex 4 {m}

OS:Surface,
  {5f9eb485-0aa1-405a-9ec1-21cc487d889d}, !- Handle
  Surface 12,                             !- Name
  Wall,                                   !- Surface Type
  ,                                       !- Construction Name
  {58017acd-4ddf-461c-9986-26d78c5ddca1}, !- Space Name
  Outdoors,                               !- Outside Boundary Condition
  ,                                       !- Outside Boundary Condition Object
  SunExposed,                             !- Sun Exposure
  WindExposed,                            !- Wind Exposure
  ,                                       !- View Factor to Ground
  ,                                       !- Number of Vertices
  5, 50, 1.2,                             !- X,Y,Z Vertex 1 {m}
  5, 50, 0,                               !- X,Y,Z Vertex 2 {m}
  0, 50, 0,                               !- X,Y,Z Vertex 3 {m}
  0, 50, 1.2;                             !- X,Y,Z Vertex 4 {m}

OS:Surface,
  {7acbbd96-2f05-48c2-a6c7-72a312164ce2}, !- Handle
  Surface 13,                             !- Name
  Wall,                                   !- Surface Type
  ,                                       !- Construction Name
  {58017acd-4ddf-461c-9986-26d78c5ddca1}, !- Space Name
  Outdoors,                               !- Outside Boundary Condition
  ,                                       !- Outside Boundary Condition Object
  SunExposed,                             !- Sun Exposure
  WindExposed,                            !- Wind Exposure
  ,                                       !- View Factor to Ground
  ,                                       !- Number of Vertices
  10, 50, 1.2,                            !- X,Y,Z Vertex 1 {m}
  10, 50, 0,                              !- X,Y,Z Vertex 2 {m}
  5, 50, 0,                               !- X,Y,Z Vertex 3 {m}
  5, 50, 1.2;                             !- X,Y,Z Vertex 4 {m}

OS:Surface,
  {22ebc2c8-1219-4197-bb73-8e0e5c7b0ec3}, !- Handle
  Surface 14,                             !- Name
  Wall,                                   !- Surface Type
  ,                                       !- Construction Name
  {58017acd-4ddf-461c-9986-26d78c5ddca1}, !- Space Name
  Outdoors,                               !- Outside Boundary Condition
  ,                                       !- Outside Boundary Condition Object
  SunExposed,                             !- Sun Exposure
  WindExposed,                            !- Wind Exposure
  ,                                       !- View Factor to Ground
  ,                                       !- Number of Vertices
  15, 50, 1.2,                            !- X,Y,Z Vertex 1 {m}
  15, 50, 0,                              !- X,Y,Z Vertex 2 {m}
  10, 50, 0,                              !- X,Y,Z Vertex 3 {m}
  10, 50, 1.2;                            !- X,Y,Z Vertex 4 {m}

OS:Surface,
  {4fc7d6a2-ad4e-412b-a244-07ef7fb73900}, !- Handle
  Surface 15,                             !- Name
  Wall,                                   !- Surface Type
  ,                                       !- Construction Name
  {58017acd-4ddf-461c-9986-26d78c5ddca1}, !- Space Name
  Outdoors,                               !- Outside Boundary Condition
  ,                                       !- Outside Boundary Condition Object
  SunExposed,                             !- Sun Exposure
  WindExposed,                            !- Wind Exposure
  ,                                       !- View Factor to Ground
  ,                                       !- Number of Vertices
  20, 50, 1.2,                            !- X,Y,Z Vertex 1 {m}
  20, 50, 0,                              !- X,Y,Z Vertex 2 {m}
  15, 50, 0,                              !- X,Y,Z Vertex 3 {m}
  15, 50, 1.2;                            !- X,Y,Z Vertex 4 {m}

OS:Surface,
  {1865fcf9-5e2b-4e58-aed8-4baaf0451776}, !- Handle
  Surface 16,                             !- Name
  Wall,                                   !- Surface Type
  ,                                       !- Construction Name
  {58017acd-4ddf-461c-9986-26d78c5ddca1}, !- Space Name
  Outdoors,                               !- Outside Boundary Condition
  ,                                       !- Outside Boundary Condition Object
  SunExposed,                             !- Sun Exposure
  WindExposed,                            !- Wind Exposure
  ,                                       !- View Factor to Ground
  ,                                       !- Number of Vertices
  25, 50, 1.2,                            !- X,Y,Z Vertex 1 {m}
  25, 50, 0,                              !- X,Y,Z Vertex 2 {m}
  20, 50, 0,                              !- X,Y,Z Vertex 3 {m}
  20, 50, 1.2;                            !- X,Y,Z Vertex 4 {m}

OS:Surface,
  {c654caee-f7da-4824-9312-f471e9e03fd9}, !- Handle
  Surface 17,                             !- Name
  Wall,                                   !- Surface Type
  ,                                       !- Construction Name
  {58017acd-4ddf-461c-9986-26d78c5ddca1}, !- Space Name
  Outdoors,                               !- Outside Boundary Condition
  ,                                       !- Outside Boundary Condition Object
  SunExposed,                             !- Sun Exposure
  WindExposed,                            !- Wind Exposure
  ,                                       !- View Factor to Ground
  ,                                       !- Number of Vertices
  30, 50, 1.2,                            !- X,Y,Z Vertex 1 {m}
  30, 50, 0,                              !- X,Y,Z Vertex 2 {m}
  25, 50, 0,                              !- X,Y,Z Vertex 3 {m}
  25, 50, 1.2;                            !- X,Y,Z Vertex 4 {m}

OS:Surface,
  {fa7f1780-8a44-462a-8b54-97fb6c66a7ea}, !- Handle
  Surface 18,                             !- Name
  Wall,                                   !- Surface Type
  ,                                       !- Construction Name
  {58017acd-4ddf-461c-9986-26d78c5ddca1}, !- Space Name
  Outdoors,                               !- Outside Boundary Condition
  ,                                       !- Outside Boundary Condition Object
  SunExposed,                             !- Sun Exposure
  WindExposed,                            !- Wind Exposure
  ,                                       !- View Factor to Ground
  ,                                       !- Number of Vertices
  35, 50, 1.2,                            !- X,Y,Z Vertex 1 {m}
  35, 50, 0,                              !- X,Y,Z Vertex 2 {m}
  30, 50, 0,                              !- X,Y,Z Vertex 3 {m}
  30, 50, 1.2;                            !- X,Y,Z Vertex 4 {m}

OS:Surface,
  {eaa3c17a-ec55-4f1a-b4ce-336a486be99a}, !- Handle
  Surface 19,                             !- Name
  Wall,                                   !- Surface Type
  ,                                       !- Construction Name
  {58017acd-4ddf-461c-9986-26d78c5ddca1}, !- Space Name
  Outdoors,                               !- Outside Boundary Condition
  ,                                       !- Outside Boundary Condition Object
  SunExposed,                             !- Sun Exposure
  WindExposed,                            !- Wind Exposure
  ,                                       !- View Factor to Ground
  ,                                       !- Number of Vertices
  40, 50, 1.2,                            !- X,Y,Z Vertex 1 {m}
  40, 50, 0,                              !- X,Y,Z Vertex 2 {m}
  35, 50, 0,                              !- X,Y,Z Vertex 3 {m}
  35, 50, 1.2;                            !- X,Y,Z Vertex 4 {m}

OS:Surface,
  {71f4a54b-b3b7-43cc-98a8-764b119f64d5}, !- Handle
  Surface 20,                             !- Name
  Wall,                                   !- Surface Type
  ,                                       !- Construction Name
  {58017acd-4ddf-461c-9986-26d78c5ddca1}, !- Space Name
  Outdoors,                               !- Outside Boundary Condition
  ,                                       !- Outside Boundary Condition Object
  SunExposed,                             !- Sun Exposure
  WindExposed,                            !- Wind Exposure
  ,                                       !- View Factor to Ground
  ,                                       !- Number of Vertices
  45, 50, 1.2,                            !- X,Y,Z Vertex 1 {m}
  45, 50, 0,                              !- X,Y,Z Vertex 2 {m}
  40, 50, 0,                              !- X,Y,Z Vertex 3 {m}
  40, 50, 1.2;                            !- X,Y,Z Vertex 4 {m}

OS:Surface,
  {971bc126-5f59-44d6-b208-8889f44b0520}, !- Handle
  Surface 21,                             !- Name
  Wall,                                   !- Surface Type
  ,                                       !- Construction Name
  {58017acd-4ddf-461c-9986-26d78c5ddca1}, !- Space Name
  Outdoors,                               !- Outside Boundary Condition
  ,                                       !- Outside Boundary Condition Object
  SunExposed,                             !- Sun Exposure
  WindExposed,                            !- Wind Exposure
  ,                                       !- View Factor to Ground
  ,                                       !- Number of Vertices
  50, 50, 1.2,                            !- X,Y,Z Vertex 1 {m}
  50, 50, 0,                              !- X,Y,Z Vertex 2 {m}
  45, 50, 0,                              !- X,Y,Z Vertex 3 {m}
  45, 50, 1.2;                            !- X,Y,Z Vertex 4 {m}

OS:Surface,
  {366cf602-d108-4101-8a06-3973df3af684}, !- Handle
  Surface 22,                             !- Name
  Wall,                                   !- Surface Type
  ,                                       !- Construction Name
  {58017acd-4ddf-461c-9986-26d78c5ddca1}, !- Space Name
  Outdoors,                               !- Outside Boundary Condition
  ,                                       !- Outside Boundary Condition Object
  SunExposed,                             !- Sun Exposure
  WindExposed,                            !- Wind Exposure
  ,                                       !- View Factor to Ground
  ,                                       !- Number of Vertices
  55, 50, 1.2,                            !- X,Y,Z Vertex 1 {m}
  55, 50, 0,                              !- X,Y,Z Vertex 2 {m}
  50, 50, 0,                              !- X,Y,Z Vertex 3 {m}
  50, 50, 1.2;                            !- X,Y,Z Vertex 4 {m}

OS:Surface,
  {85b9949e-3e31-43e7-888f-8af3ecc856f1}, !- Handle
  Surface 23,                             !- Name
  Wall,                                   !- Surface Type
  ,                                       !- Construction Name
  {58017acd-4ddf-461c-9986-26d78c5ddca1}, !- Space Name
  Outdoors,                               !- Outside Boundary Condition
  ,                                       !- Outside Boundary Condition Object
  SunExposed,                             !- Sun Exposure
  WindExposed,                            !- Wind Exposure
  ,                                       !- View Factor to Ground
  ,                                       !- Number of Vertices
  60, 50, 1.2,                            !- X,Y,Z Vertex 1 {m}
  60, 50, 0,                              !- X,Y,Z Vertex 2 {m}
  55, 50, 0,                              !- X,Y,Z Vertex 3 {m}
  55, 50, 1.2;                            !- X,Y,Z Vertex 4 {m}

OS:Surface,
  {c29ae724-3e0f-4b47-94b0-aa246a1ba358}, !- Handle
  Surface 24,                             !- Name
  Wall,                                   !- Surface Type
  ,                                       !- Construction Name
  {58017acd-4ddf-461c-9986-26d78c5ddca1}, !- Space Name
  Outdoors,                               !- Outside Boundary Condition
  ,                                       !- Outside Boundary Condition Object
  SunExposed,                             !- Sun Exposure
  WindExposed,                            !- Wind Exposure
  ,                                       !- View Factor to Ground
  ,                                       !- Number of Vertices
  65, 50, 1.2,                            !- X,Y,Z Vertex 1 {m}
  65, 50, 0,                              !- X,Y,Z Vertex 2 {m}
  60, 50, 0,                              !- X,Y,Z Vertex 3 {m}
  60, 50, 1.2;                            !- X,Y,Z Vertex 4 {m}

OS:Surface,
  {f833c08d-883d-4524-8109-10cca2e58e8e}, !- Handle
  Surface 25,                             !- Name
  Wall,                                   !- Surface Type
  ,                                       !- Construction Name
  {58017acd-4ddf-461c-9986-26d78c5ddca1}, !- Space Name
  Outdoors,                               !- Outside Boundary Condition
  ,                                       !- Outside Boundary Condition Object
  SunExposed,                             !- Sun Exposure
  WindExposed,                            !- Wind Exposure
  ,                                       !- View Factor to Ground
  ,                                       !- Number of Vertices
  70, 50, 1.2,                            !- X,Y,Z Vertex 1 {m}
  70, 50, 0,                              !- X,Y,Z Vertex 2 {m}
  65, 50, 0,                              !- X,Y,Z Vertex 3 {m}
  65, 50, 1.2;                            !- X,Y,Z Vertex 4 {m}

OS:Surface,
  {b18d36f5-ec95-46be-b76a-ca0ba3c7c4e0}, !- Handle
  Surface 26,                             !- Name
  Wall,                                   !- Surface Type
  ,                                       !- Construction Name
  {58017acd-4ddf-461c-9986-26d78c5ddca1}, !- Space Name
  Outdoors,                               !- Outside Boundary Condition
  ,                                       !- Outside Boundary Condition Object
  SunExposed,                             !- Sun Exposure
  WindExposed,                            !- Wind Exposure
  ,                                       !- View Factor to Ground
  ,                                       !- Number of Vertices
  75, 50, 1.2,                            !- X,Y,Z Vertex 1 {m}
  75, 50, 0,                              !- X,Y,Z Vertex 2 {m}
  70, 50, 0,                              !- X,Y,Z Vertex 3 {m}
  70, 50, 1.2;                            !- X,Y,Z Vertex 4 {m}

OS:Surface,
  {32542b23-1f2d-4a1c-bf9b-c5e7bb6469e6}, !- Handle
  Surface 27,                             !- Name
  Wall,                                   !- Surface Type
  ,                                       !- Construction Name
  {58017acd-4ddf-461c-9986-26d78c5ddca1}, !- Space Name
  Outdoors,                               !- Outside Boundary Condition
  ,                                       !- Outside Boundary Condition Object
  SunExposed,                             !- Sun Exposure
  WindExposed,                            !- Wind Exposure
  ,                                       !- View Factor to Ground
  ,                                       !- Number of Vertices
  80, 50, 1.2,                            !- X,Y,Z Vertex 1 {m}
  80, 50, 0,                              !- X,Y,Z Vertex 2 {m}
  75, 50, 0,                              !- X,Y,Z Vertex 3 {m}
  75, 50, 1.2;                            !- X,Y,Z Vertex 4 {m}

OS:Surface,
  {31034ce9-cf92-477e-ad35-60366fc5dbbc}, !- Handle
  Surface 28,                             !- Name
  Wall,                                   !- Surface Type
  ,                                       !- Construction Name
  {58017acd-4ddf-461c-9986-26d78c5ddca1}, !- Space Name
  Outdoors,                               !- Outside Boundary Condition
  ,                                       !- Outside Boundary Condition Object
  SunExposed,                             !- Sun Exposure
  WindExposed,                            !- Wind Exposure
  ,                                       !- View Factor to Ground
  ,                                       !- Number of Vertices
  85, 50, 1.2,                            !- X,Y,Z Vertex 1 {m}
  85, 50, 0,                              !- X,Y,Z Vertex 2 {m}
  80, 50, 0,                              !- X,Y,Z Vertex 3 {m}
  80, 50, 1.2;                            !- X,Y,Z Vertex 4 {m}

OS:Surface,
  {8d41d510-be2f-4479-9033-e6f2d4d4d0bc}, !- Handle
  Surface 29,                             !- Name
  Wall,                                   !- Surface Type
  ,                                       !- Construction Name
  {58017acd-4ddf-461c-9986-26d78c5ddca1}, !- Space Name
  Outdoors,                               !- Outside Boundary Condition
  ,                                       !- Outside Boundary Condition Object
  SunExposed,                             !- Sun Exposure
  WindExposed,                            !- Wind Exposure
  ,                                       !- View Factor to Ground
  ,                                       !- Number of Vertices
  90, 50, 1.2,                            !- X,Y,Z Vertex 1 {m}
  90, 50, 0,                              !- X,Y,Z Vertex 2 {m}
  85, 50, 0,                              !- X,Y,Z Vertex 3 {m}
  85, 50, 1.2;                            !- X,Y,Z Vertex 4 {m}

OS:Surface,
  {912f406f-c120-4c0e-b196-e9fcb6d4e08b}, !- Handle
  Surface 30,                             !- Name
  Wall,                                   !- Surface Type
  ,                                       !- Construction Name
  {58017acd-4ddf-461c-9986-26d78c5ddca1}, !- Space Name
  Outdoors,                               !- Outside Boundary Condition
  ,                                       !- Outside Boundary Condition Object
  SunExposed,                             !- Sun Exposure
  WindExposed,                            !- Wind Exposure
  ,                                       !- View Factor to Ground
  ,                                       !- Number of Vertices
  95, 50, 1.2,                            !- X,Y,Z Vertex 1 {m}
  95, 50, 0,                              !- X,Y,Z Vertex 2 {m}
  90, 50, 0,                              !- X,Y,Z Vertex 3 {m}
  90, 50, 1.2;                            !- X,Y,Z Vertex 4 {m}

OS:Surface,
  {89b2ff8f-7f45-435f-b919-62707243cb5b}, !- Handle
  Surface 31,                             !- Name
  Wall,                                   !- Surface Type
  ,                                       !- Construction Name