
OS:Version,
  {b7d7d853-0b91-4193-b43a-457e768d1211}, !- Handle
  1.7.0;                                  !- Version Identifier

OS:Space,
  {9c5cb196-c4ad-4d00-b2a9-93d12a08636b}, !- Handle
  Ground,                                 !- Name
  ,                                       !- Space Type Name
  ,                                       !- Default Construction Set Name
  ,                                       !- Default Schedule Set Name
  -0,                                     !- Direction of Relative North {deg}
  0,                                      !- X Origin {m}
  0,                                      !- Y Origin {m}
  0,                                      !- Z Origin {m}
  ,                                       !- Building Story Name
  {a0ca4b91-a1ca-4543-8e0e-2e59262eb944}; !- Thermal Zone Name

OS:Surface,
  {ec3d13e4-b24b-4692-a2f6-dea918be2d66}, !- Handle
  Surface 1,                              !- Name
  Floor,                                  !- Surface Type
  ,                                       !- Construction Name
  {9c5cb196-c4ad-4d00-b2a9-93d12a08636b}, !- Space Name
  Ground,                                 !- Outside Boundary Condition
  ,                                       !- Outside Boundary Condition Object
  NoSun,                                  !- Sun Exposure
  NoWind,                                 !- Wind Exposure
  ,                                       !- View Factor to Ground
  ,                                       !- Number of Vertices
  0, 0, 0,                                !- X,Y,Z Vertex 1 {m}
  0, 10, 0,                               !- X,Y,Z Vertex 2 {m}
  10, 10, 0,                              !- X,Y,Z Vertex 3 {m}
  10, 0, 0;                               !- X,Y,Z Vertex 4 {m}

OS:Surface,
  {3a96cde7-c6a3-46ee-9638-fe2f31da2123}, !- Handle
  Surface 2,                              !- Name
  Wall,                                   !- Surface Type
  ,                                       !- Construction Name
  {9c5cb196-c4ad-4d00-b2a9-93d12a08636b}, !- Space Name
  Outdoors,                               !- Outside Boundary Condition
  ,                                       !- Outside Boundary Condition Object
  SunExposed,                             !- Sun Exposure
  WindExposed,                            !- Wind Exposure
  ,                                       !- View Factor to Ground
  ,                                       !- Number of Vertices
  0, 10, 1,                               !- X,Y,Z Vertex 1 {m}
  0, 10, 0,                               !- X,Y,Z Vertex 2 {m}
  0, 0, 0,                                !- X,Y,Z Vertex 3 {m}
  0, 0, 1;                                !- X,Y,Z Vertex 4 {m}

OS:Surface,
  {8c423e35-f848-475c-b75e-6f40655e602e}, !- Handle
  Surface 3,                              !- Name
  Wall,                                   !- Surface Type
  ,                                       !- Construction Name
  {9c5cb196-c4ad-4d00-b2a9-93d12a08636b}, !- Space Name
  Surface,                                !- Outside Boundary Condition
  {091fdd06-9947-424b-b6e8-803a4aea3d35}, !- Outside Boundary Condition Object
  NoSun,                                  !- Sun Exposure
  NoWind,                                 !- Wind Exposure
  ,                                       !- View Factor to Ground
  ,                                       !- Number of Vertices
  10, 10, 1,                              !- X,Y,Z Vertex 1 {m}
  10, 10, 0,                              !- X,Y,Z Vertex 2 {m}
  0, 10, 0,                               !- X,Y,Z Vertex 3 {m}
  0, 10, 1;                               !- X,Y,Z Vertex 4 {m}

OS:Surface,
  {be798122-b012-4fd4-ac79-58f149a2adac}, !- Handle
  Surface 4,                              !- Name
  Wall,                                   !- Surface Type
  ,                                       !- Construction Name
  {9c5cb196-c4ad-4d00-b2a9-93d12a08636b}, !- Space Name
  Surface,                                !- Outside Boundary Condition
  {d380fe1d-acb8-48ab-a5ee-b95e439d197f}, !- Outside Boundary Condition Object
  NoSun,                                  !- Sun Exposure
  NoWind,                                 !- Wind Exposure
  ,                                       !- View Factor to Ground
  ,                                       !- Number of Vertices
  10, 0, 1,                               !- X,Y,Z Vertex 1 {m}
  10, 0, 0,                               !- X,Y,Z Vertex 2 {m}
  10, 10, 0,                              !- X,Y,Z Vertex 3 {m}
  10, 10, 1;                              !- X,Y,Z Vertex 4 {m}

OS:Surface,
  {8fc45924-5a6f-42ba-8532-e6879c81daf0}, !- Handle
  Surface 5,                              !- Name
  Wall,                                   !- Surface Type
  ,                                       !- Construction Name
  {9c5cb196-c4ad-4d00-b2a9-93d12a08636b}, !- Space Name
  Outdoors,                               !- Outside Boundary Condition
  ,                                       !- Outside Boundary Condition Object
  SunExposed,                             !- Sun Exposure
  WindExposed,                            !- Wind Exposure
  ,                                       !- View Factor to Ground
  ,                                       !- Number of Vertices
  0, 0, 1,                                !- X,Y,Z Vertex 1 {m}
  0, 0, 0,                                !- X,Y,Z Vertex 2 {m}
  10, 0, 0,                               !- X,Y,Z Vertex 3 {m}
  10, 0, 1;                               !- X,Y,Z Vertex 4 {m}

OS:Surface,
  {a3717c00-f33f-471a-b5ee-b57b48c89879}, !- Handle
  Surface 6,                              !- Name
  RoofCeiling,                            !- Surface Type
  ,                                       !- Construction Name
  {9c5cb196-c4ad-4d00-b2a9-93d12a08636b}, !- Space Name
  Outdoors,                               !- Outside Boundary Condition
  ,                                       !- Outside Boundary Condition Object
  SunExposed,                             !- Sun Exposure
  WindExposed,                            !- Wind Exposure
  ,                                       !- View Factor to Ground
  ,                                       !- Number of Vertices
  10, 0, 1,                               !- X,Y,Z Vertex 1 {m}
  10, 10, 1,                              !- X,Y,Z Vertex 2 {m}
  0, 10, 1,                               !- X,Y,Z Vertex 3 {m}
  0, 0, 1;                                !- X,Y,Z Vertex 4 {m}

OS:Space,
  {01740bb0-01e8-4f9b-a256-7e4aefab7ead}, !- Handle
  Ground 1,                               !- Name
  ,                                       !- Space Type Name
  ,                                       !- Default Construction Set Name
  ,                                       !- Default Schedule Set Name
  -0,                                     !- Direction of Relative North {deg}
  10,                                     !- X Origin {m}
  0,                                      !- Y Origin {m}
  0,                                      !- Z Origin {m}
  ,                                       !- Building Story Name
  {40139ad8-9b7e-44b4-9a42-26a11e74028e}; !- Thermal Zone Name

OS:Surface,
  {e93e789f-c745-4472-82ab-55c7acfd8b91}, !- Handle
  Surface 7,                              !- Name
  Floor,                                  !- Surface Type
  ,                                       !- Construction Name
  {01740bb0-01e8-4f9b-a256-7e4aefab7ead}, !- Space Name
  Ground,                                 !- Outside Boundary Condition
  ,                                       !- Outside Boundary Condition Object
  NoSun,                                  !- Sun Exposure
  NoWind,                                 !- Wind Exposure
  ,                                       !- View Factor to Ground
  ,                                       !- Number of Vertices
  0, 0, 0,                                !- X,Y,Z Vertex 1 {m}
  0, 10, 0,                               !- X,Y,Z Vertex 2 {m}
  10, 10, 0,                              !- X,Y,Z Vertex 3 {m}
  10, 0, 0;                               !- X,Y,Z Vertex 4 {m}

OS:Surface,
  {d380fe1d-acb8-48ab-a5ee-b95e439d197f}, !- Handle
  Surface 8,                              !- Name
  Wall,                                   !- Surface Type
  ,                                       !- Construction Name
  {01740bb0-01e8-4f9b-a256-7e4aefab7ead}, !- Space Name
  Surface,                                !- Outside Boundary Condition
  {be798122-b012-4fd4-ac79-58f149a2adac}, !- Outside Boundary Condition Object
  NoSun,                                  !- Sun Exposure
  NoWind,                                 !- Wind Exposure
  ,                                       !- View Factor to Ground
  ,                                       !- Number of Vertices
  0, 10, 1,                               !- X,Y,Z Vertex 1 {m}
  0, 10, 0,                               !- X,Y,Z Vertex 2 {m}
  0, 0, 0,                                !- X,Y,Z Vertex 3 {m}
  0, 0, 1;                                !- X,Y,Z Vertex 4 {m}

OS:Surface,
  {785d71cf-4c2a-471f-bffd-d983c6b2bf8b}, !- Handle
  Surface 9,                              !- Name
  Wall,                                   !- Surface Type
  ,                                       !- Construction Name
  {01740bb0-01e8-4f9b-a256-7e4aefab7ead}, !- Space Name
  Surface,                                !- Outside Boundary Condition
  {7cfea2ec-6a70-4e40-95d3-4b1f1c008b50}, !- Outside Boundary Condition Object
  NoSun,                                  !- Sun Exposure
  NoWind,                                 !- Wind Exposure
  ,                                       !- View Factor to Ground
  ,                                       !- Number of Vertices
  10, 10, 1,                              !- X,Y,Z Vertex 1 {m}
  10, 10, 0,                              !- X,Y,Z Vertex 2 {m}
  0, 10, 0,                               !- X,Y,Z Vertex 3 {m}
  0, 10, 1;                               !- X,Y,Z Vertex 4 {m}

OS:Surface,
  {806f9454-35ae-46d1-be3b-af96beee480e}, !- Handle
  Surface 10,                             !- Name
  Wall,                                   !- Surface Type
  ,                                       !- Construction Name
  {01740bb0-01e8-4f9b-a256-7e4aefab7ead}, !- Space Name
  Surface,                                !- Outside Boundary Condition
  {96acd759-aeb4-400d-b767-413704101fee}, !- Outside Boundary Condition Object
  NoSun,                                  !- Sun Exposure
  NoWind,                                 !- Wind Exposure
  ,                                       !- View Factor to Ground
  ,                                       !- Number of Vertices
  10, 0, 1,                               !- X,Y,Z Vertex 1 {m}
  10, 0, 0,                               !- X,Y,Z Vertex 2 {m}
  10, 10, 0,                              !- X,Y,Z Vertex 3 {m}
  10, 10, 1;                              !- X,Y,Z Vertex 4 {m}

OS:Surface,
  {7efbdf88-16c2-41d0-9f2d-33bcca1170c2}, !- Handle
  Surface 11,                             !- Name
  Wall,                                   !- Surface Type
  ,                                       !- Construction Name
  {01740bb0-01e8-4f9b-a256-7e4aefab7ead}, !- Space Name
  Outdoors,                               !- Outside Boundary Condition
  ,                                       !- Outside Boundary Condition Object
  SunExposed,                             !- Sun Exposure
  WindExposed,                            !- Wind Exposure
  ,                                       !- View Factor to Ground
  ,                                       !- Number of Vertices
  0, 0, 1,                                !- X,Y,Z Vertex 1 {m}
  0, 0, 0,                                !- X,Y,Z Vertex 2 {m}
  10, 0, 0,                               !- X,Y,Z Vertex 3 {m}
  10, 0, 1;                               !- X,Y,Z Vertex 4 {m}

OS:Surface,
  {529d1697-67a0-45a1-8194-09d9b8d77576}, !- Handle
  Surface 12,                             !- Name
  RoofCeiling,                            !- Surface Type
  ,                                       !- Construction Name
  {01740bb0-01e8-4f9b-a256-7e4aefab7ead}, !- Space Name
  Outdoors,                               !- Outside Boundary Condition
  ,                                       !- Outside Boundary Condition Object
  SunExposed,                             !- Sun Exposure
  WindExposed,                            !- Wind Exposure
  ,                                       !- View Factor to Ground
  ,                                       !- Number of Vertices
  10, 0, 1,                               !- X,Y,Z Vertex 1 {m}
  10, 10, 1,                              !- X,Y,Z Vertex 2 {m}
  0, 10, 1,                               !- X,Y,Z Vertex 3 {m}
  0, 0, 1;                                !- X,Y,Z Vertex 4 {m}

OS:Space,
  {cb6eb3f4-5d7c-44cb-8e77-9459f4fd03c3}, !- Handle
  Ground 2,                               !- Name
  ,                                       !- Space Type Name
  ,                                       !- Default Construction Set Name
  ,                                       !- Default Schedule Set Name
  -0,                                     !- Direction of Relative North {deg}
  20,                                     !- X Origin {m}
  0,                                      !- Y Origin {m}
  0,                                      !- Z Origin {m}
  ,                                       !- Building Story Name
  {e9a9d8b4-99f3-4d04-a0a1-d0eed5799a91}; !- Thermal Zone Name

OS:Surface,
  {0c1f9d95-c9cc-40a5-9dcc-72d35c1b53b9}, !- Handle
  Surface 13,                             !- Name
  Floor,                                  !- Surface Type
  ,                                       !- Construction Name
  {cb6eb3f4-5d7c-44cb-8e77-9459f4fd03c3}, !- Space Name
  Ground,                                 !- Outside Boundary Condition
  ,                                       !- Outside Boundary Condition Object
  NoSun,                                  !- Sun Exposure
  NoWind,                                 !- Wind Exposure
  ,                                       !- View Factor to Ground
  ,                                       !- Number of Vertices
  0, 0, 0,                                !- X,Y,Z Vertex 1 {m}
  0, 10, 0,                               !- X,Y,Z Vertex 2 {m}
  10, 10, 0,                              !- X,Y,Z Vertex 3 {m}
  10, 0, 0;                               !- X,Y,Z Vertex 4 {m}

OS:Surface,
  {96acd759-aeb4-400d-b767-413704101fee}, !- Handle
  Surface 14,                             !- Name
  Wall,                                   !- Surface Type
  ,                                       !- Construction Name
  {cb6eb3f4-5d7c-44cb-8e77-9459f4fd03c3}, !- Space Name
  Surface,                                !- Outside Boundary Condition
  {806f9454-35ae-46d1-be3b-af96beee480e}, !- Outside Boundary Condition Object
  NoSun,                                  !- Sun Exposure
  NoWind,                                 !- Wind Exposure
  ,                                       !- View Factor to Ground
  ,                                       !- Number of Vertices
  0, 10, 1,                               !- X,Y,Z Vertex 1 {m}
  0, 10, 0,                               !- X,Y,Z Vertex 2 {m}
  0, 0, 0,                                !- X,Y,Z Vertex 3 {m}
  0, 0, 1;                                !- X,Y,Z Vertex 4 {m}

OS:Surface,
  {ac80dab3-530d-4f29-9ea8-34cf756ca57d}, !- Handle
  Surface 15,                             !- Name
  Wall,                                   !- Surface Type
  ,                                       !- Construction Name
  {cb6eb3f4-5d7c-44cb-8e77-9459f4fd03c3}, !- Space Name
  Surface,                                !- Outside Boundary Condition
  {2ba584a0-cae1-48a2-9285-e27b93eff678}, !- Outside Boundary Condition Object
  NoSun,                                  !- Sun Exposure
  NoWind,                                 !- Wind Exposure
  ,                                       !- View Factor to Ground
  ,                                       !- Number of Vertices
  10, 10, 1,                              !- X,Y,Z Vertex 1 {m}
  10, 10, 0,                              !- X,Y,Z Vertex 2 {m}
  0, 10, 0,                               !- X,Y,Z Vertex 3 {m}
  0, 10, 1;                               !- X,Y,Z Vertex 4 {m}

OS:Surface,
  {23d4a9aa-848b-4cb2-9fc3-31ab2cdeb627}, !- Handle
  Surface 16,                             !- Name
  Wall,                                   !- Surface Type
  ,                                       !- Construction Name
  {cb6eb3f4-5d7c-44cb-8e77-9459f4fd03c3}, !- Space Name
  Surface,                                !- Outside Boundary Condition
  {3f625740-6c81-4505-81bd-213500540dc0}, !- Outside Boundary Condition Object
  NoSun,                                  !- Sun Exposure
  NoWind,                                 !- Wind Exposure
  ,                                       !- View Factor to Ground
  ,                                       !- Number of Vertices
  10, 0, 1,                               !- X,Y,Z Vertex 1 {m}
  10, 0, 0,                               !- X,Y,Z Vertex 2 {m}
  10, 10, 0,                              !- X,Y,Z Vertex 3 {m}
  10, 10, 1;                              !- X,Y,Z Vertex 4 {m}

OS:Surface,
  {30cd9237-8939-4c98-95f4-5323924154fe}, !- Handle
  Surface 17,                             !- Name
  Wall,                                   !- Surface Type
  ,                                       !- Construction Name
  {cb6eb3f4-5d7c-44cb-8e77-9459f4fd03c3}, !- Space Name
  Outdoors,                               !- Outside Boundary Condition
  ,                                       !- Outside Boundary Condition Object
  SunExposed,                             !- Sun Exposure
  WindExposed,                            !- Wind Exposure
  ,                                       !- View Factor to Ground
  ,                                       !- Number of Vertices
  0, 0, 1,                                !- X,Y,Z Vertex 1 {m}
  0, 0, 0,                                !- X,Y,Z Vertex 2 {m}
  10, 0, 0,                               !- X,Y,Z Vertex 3 {m}
  10, 0, 1;                               !- X,Y,Z Vertex 4 {m}

OS:Surface,
  {806af312-b19d-4428-8c3d-368110d4dee6}, !- Handle
  Surface 18,                             !- Name
  RoofCeiling,                            !- Surface Type
  ,                                       !- Construction Name
  {cb6eb3f4-5d7c-44cb-8e77-9459f4fd03c3}, !- Space Name
  Outdoors,                               !- Outside Boundary Condition
  ,                                       !- Outside Boundary Condition Object
  SunExposed,                             !- Sun Exposure
  WindExposed,                            !- Wind Exposure
  ,                                       !- View Factor to Ground
  ,                                       !- Number of Vertices
  10, 0, 1,                               !- X,Y,Z Vertex 1 {m}
  10, 10, 1,                              !- X,Y,Z Vertex 2 {m}
  0, 10, 1,                               !- X,Y,Z Vertex 3 {m}
  0, 0, 1;                                !- X,Y,Z Vertex 4 {m}

OS:Space,
  {05655931-a6f0-4eba-a5e8-27e413e544c0}, !- Handle
  Ground 3,                               !- Name
  ,                                       !- Space Type Name
  ,                                       !- Default Construction Set Name
  ,                                       !- Default Schedule Set Name
  -0,                                     !- Direction of Relative North {deg}
  30,                                     !- X Origin {m}
  0,                                      !- Y Origin {m}
  0,                                      !- Z Origin {m}
  ,                                       !- Building Story Name
  {caae55bf-03c1-4c4e-b7d4-657062442b72}; !- Thermal Zone Name

OS:Surface,
  {2378a75f-92f7-4a9e-bf19-7e00bff7f3e2}, !- Handle
  Surface 19,                             !- Name
  Floor,                                  !- Surface Type
  ,                                       !- Construction Name
  {05655931-a6f0-4eba-a5e8-27e413e544c0}, !- Space Name
  Ground,                                 !- Outside Boundary Condition
  ,                                       !- Outside Boundary Condition Object
  NoSun,                                  !- Sun Exposure
  NoWind,                                 !- Wind Exposure
  ,                                       !- View Factor to Ground
  ,                                       !- Number of Vertices
  0, 0, 0,                                !- X,Y,Z Vertex 1 {m}
  0, 10, 0,                               !- X,Y,Z Vertex 2 {m}
  10, 10, 0,                              !- X,Y,Z Vertex 3 {m}
  10, 0, 0;                               !- X,Y,Z Vertex 4 {m}

OS:Surface,
  {3f625740-6c81-4505-81bd-213500540dc0}, !- Handle
  Surface 20,                             !- Name
  Wall,                                   !- Surface Type
  ,                                       !- Construction Name
  {05655931-a6f0-4eba-a5e8-27e413e544c0}, !- Space Name
  Surface,                                !- Outside Boundary Condition
  {23d4a9aa-848b-4cb2-9fc3-31ab2cdeb627}, !- Outside Boundary Condition Object
  NoSun,                                  !- Sun Exposure
  NoWind,                                 !- Wind Exposure
  ,                                       !- View Factor to Ground
  ,                                       !- Number of Vertices
  0, 10, 1,                               !- X,Y,Z Vertex 1 {m}
  0, 10, 0,                               !- X,Y,Z Vertex 2 {m}
  0, 0, 0,                                !- X,Y,Z Vertex 3 {m}
  0, 0, 1;                                !- X,Y,Z Vertex 4 {m}

OS:Surface,
  {30b83d6c-ef31-4aaa-9d8a-4fe3e22e9377}, !- Handle
  Surface 21,                             !- Name
  Wall,                                   !- Surface Type
  ,                                       !- Construction Name
  {05655931-a6f0-4eba-a5e8-27e413e544c0}, !- Space Name
  Surface,                                !- Outside Boundary Condition
  {c8a5cdb2-69f2-43fc-879a-a378fe0f5de7}, !- Outside Boundary Condition Object
  NoSun,                                  !- Sun Exposure
  NoWind,                                 !- Wind Exposure
  ,                                       !- View Factor to Ground
  ,                                       !- Number of Vertices
  10, 10, 1,                              !- X,Y,Z Vertex 1 {m}
  10, 10, 0,                              !- X,Y,Z Vertex 2 {m}
  0, 10, 0,                               !- X,Y,Z Vertex 3 {m}
  0, 10, 1;                               !- X,Y,Z Vertex 4 {m}

OS:Surface,
  {99baaad2-8602-444e-a440-7f026cd5b197}, !- Handle
  Surface 22,                             !- Name
  Wall,                                   !- Surface Type
  ,                                       !- Construction Name
  {05655931-a6f0-4eba-a5e8-27e413e544c0}, !- Space Name
  Surface,                                !- Outside Boundary Condition
  {a9c0bd39-80c2-4e7a-b06c-bba76459187c}, !- Outside Boundary Condition Object
  NoSun,                                  !- Sun Exposure
  NoWind,                                 !- Wind Exposure
  ,                                       !- View Factor to Ground
  ,                                       !- Number of Vertices
  10, 0, 1,                               !- X,Y,Z Vertex 1 {m}
  10, 0, 0,                               !- X,Y,Z Vertex 2 {m}
  10, 10, 0,                              !- X,Y,Z Vertex 3 {m}
  10, 10, 1;                              !- X,Y,Z Vertex 4 {m}

OS:Surface,
  {4b910696-4673-4aef-a73c-15872372e422}, !- Handle
  Surface 23,                             !- Name
  Wall,                                   !- Surface Type
  ,                                       !- Construction Name
  {05655931-a6f0-4eba-a5e8-27e413e544c0}, !- Space Name
  Outdoors,                               !- Outside Boundary Condition
  ,                                       !- Outside Boundary Condition Object
  SunExposed,                             !- Sun Exposure
  WindExposed,                            !- Wind Exposure
  ,                                       !- View Factor to Ground
  ,                                       !- Number of Vertices
  0, 0, 1,                                !- X,Y,Z Vertex 1 {m}
  0, 0, 0,                                !- X,Y,Z Vertex 2 {m}
  10, 0, 0,                               !- X,Y,Z Vertex 3 {m}
  10, 0, 1;                               !- X,Y,Z Vertex 4 {m}

OS:Surface,
  {4946bf96-0f2d-4404-9e43-42e0498cbe4f}, !- Handle
  Surface 24,                             !- Name
  RoofCeiling,                            !- Surface Type
  ,                                       !- Construction Name
  {05655931-a6f0-4eba-a5e8-27e413e544c0}, !- Space Name
  Outdoors,                               !- Outside Boundary Condition
  ,                                       !- Outside Boundary Condition Object
  SunExposed,                             !- Sun Exposure
  WindExposed,                            !- Wind Exposure
  ,                                       !- View Factor to Ground
  ,                                       !- Number of Vertices
  10, 0, 1,                               !- X,Y,Z Vertex 1 {m}
  10, 10, 1,                              !- X,Y,Z Vertex 2 {m}
  0, 10, 1,                               !- X,Y,Z Vertex 3 {m}
  0, 0, 1;                                !- X,Y,Z Vertex 4 {m}

OS:Space,
  {f1cc8d1f-5be1-49c4-9917-0055d5e565a2}, !- Handle
  Ground 4,                               !- Name
  ,                                       !- Space Type Name
  ,                                       !- Default Construction Set Name
  ,                                       !- Default Schedule Set Name
  -0,                                     !- Direction of Relative North {deg}
  40,                                     !- X Origin {m}
  0,                                      !- Y Origin {m}
  0,                                      !- Z Origin {m}
  ,                                       !- Building Story Name
  {f032354d-db48-4f18-9279-7e55e420c397}; !- Thermal Zone Name

OS:Surface,
  {7c556517-84d7-4d17-89cf-e4912daffb00}, !- Handle
  Surface 25,                             !- Name
  Floor,                                  !- Surface Type
  ,                                       !- Construction Name
  {f1cc8d1f-5be1-49c4-9917-0055d5e565a2}, !- Space Name
  Ground,                                 !- Outside Boundary Condition
  ,                                       !- Outside Boundary Condition Object
  NoSun,                                  !- Sun Exposure
  NoWind,                                 !- Wind Exposure
  ,                                       !- View Factor to Ground
  ,                                       !- Number of Vertices
  0, 0, 0,                                !- X,Y,Z Vertex 1 {m}
  0, 10, 0,                               !- X,Y,Z Vertex 2 {m}
  10, 10, 0,                              !- X,Y,Z Vertex 3 {m}
  10, 0, 0;                               !- X,Y,Z Vertex 4 {m}

OS:Surface,
  {a9c0bd39-80c2-4e7a-b06c-bba76459187c}, !- Handle
  Surface 26,                             !- Name
  Wall,                                   !- Surface Type
  ,                                       !- Construction Name
  {f1cc8d1f-5be1-49c4-9917-0055d5e565a2}, !- Space Name
  Surface,                                !- Outside Boundary Condition
  {99baaad2-8602-444e-a440-7f026cd5b197}, !- Outside Boundary Condition Object
  NoSun,                                  !- Sun Exposure
  NoWind,                                 !- Wind Exposure
  ,                                       !- View Factor to Ground
  ,                                       !- Number of Vertices
  0, 10, 1,                               !- X,Y,Z Vertex 1 {m}
  0, 10, 0,                               !- X,Y,Z Vertex 2 {m}
  0, 0, 0,                                !- X,Y,Z Vertex 3 {m}
  0, 0, 1;                                !- X,Y,Z Vertex 4 {m}

OS:Surface,
  {084484a0-60c8-433c-9ce3-c80c61089e98}, !- Handle
  Surface 27,                             !- Name
  Wall,                                   !- Surface Type
  ,                                       !- Construction Name
  {f1cc8d1f-5be1-49c4-9917-0055d5e565a2}, !- Space Name
  Surface,                                !- Outside Boundary Condition
  {fc7e7ed8-3497-4fec-a6f6-b04ec49d7fdc}, !- Outside Boundary Condition Object
  NoSun,                                  !- Sun Exposure
  NoWind,                                 !- Wind Exposure
  ,                                       !- View Factor to Ground
  ,                                       !- Number of Vertices
  10, 10, 1,                              !- X,Y,Z Vertex 1 {m}
  10, 10, 0,                              !- X,Y,Z Vertex 2 {m}
  0, 10, 0,                               !- X,Y,Z Vertex 3 {m}
  0, 10, 1;                               !- X,Y,Z Vertex 4 {m}

OS:Surface,
  {6c67da5a-2417-4ad0-b19c-d9cb6c3b9c08}, !- Handle
  Surface 28,                             !- Name
  Wall,                                   !- Surface Type
  ,                                       !- Construction Name
  {f1cc8d1f-5be1-49c4-9917-0055d5e565a2}, !- Space Name
  Outdoors,                               !- Outside Boundary Condition
  ,                                       !- Outside Boundary Condition Object
  SunExposed,                             !- Sun Exposure
  WindExposed,                            !- Wind Exposure
  ,                                       !- View Factor to Ground
  ,                                       !- Number of Vertices
  10, 0, 1,                               !- X,Y,Z Vertex 1 {m}