
OS:Version,
  {a764073b-96e9-4f2a-9ac1-f6b9bb18c710}, !- Handle
  1.7.0;                                  !- Version Identifier

OS:Space,
  {a18607a9-4e6f-426d-8e20-ce4d521b779a}, !- Handle
  Ground,                                 !- Name
  ,                                       !- Space Type Name
  ,                                       !- Default Construction Set Name
  ,                                       !- Default Schedule Set Name
  -0,                                     !- Direction of Relative North {deg}
  0,                                      !- X Origin {m}
  50,                                     !- Y Origin {m}
  0,                                      !- Z Origin {m}
  ,                                       !- Building Story Name
  {0fd39568-f493-4a38-b71b-cf37bc352e2f}; !- Thermal Zone Name

OS:Surface,
  {dd1a9af3-e83b-4d41-ad1b-567501d07ad7}, !- Handle
  Surface 1,                              !- Name
  Floor,                                  !- Surface Type
  ,                                       !- Construction Name
  {a18607a9-4e6f-426d-8e20-ce4d521b779a}, !- Space Name
  Ground,                                 !- Outside Boundary Condition
  ,                                       !- Outside Boundary Condition Object
  NoSun,                                  !- Sun Exposure
  NoWind,                                 !- Wind Exposure
  ,                                       !- View Factor to Ground
  ,                                       !- Number of Vertices
  0, 0, 0,                                !- X,Y,Z Vertex 1 {m}
  50, -50, 0,                             !- X,Y,Z Vertex 2 {m}
  0, -100, 0,                             !- X,Y,Z Vertex 3 {m}
  -50, -50, 0;                            !- X,Y,Z Vertex 4 {m}

OS:Surface,
  {1c53073a-58d0-4f1e-86f1-10e0c4c317e8}, !- Handle
  Surface 2,                              !- Name
  Wall,                                   !- Surface Type
  ,                                       !- Construction Name
  {a18607a9-4e6f-426d-8e20-ce4d521b779a}, !- Space Name
  Outdoors,                               !- Outside Boundary Condition
  ,                                       !- Outside Boundary Condition Object
  SunExposed,                             !- Sun Exposure
  WindExposed,                            !- Wind Exposure
  ,                                       !- View Factor to Ground
  ,                                       !- Number of Vertices
  50, -50, 1,                             !- X,Y,Z Vertex 1 {m}
  50, -50, 0,                             !- X,Y,Z Vertex 2 {m}
  0, 0, 0,                                !- X,Y,Z Vertex 3 {m}
  0, 0, 1;                                !- X,Y,Z Vertex 4 {m}

OS:Surface,
  {bd6a8233-4c54-4f46-ab26-942a405523e5}, !- Handle
  Surface 3,                              !- Name
  Wall,                                   !- Surface Type
  ,                                       !- Construction Name
  {a18607a9-4e6f-426d-8e20-ce4d521b779a}, !- Space Name
  Outdoors,                               !- Outside Boundary Condition
  ,                                       !- Outside Boundary Condition Object
  SunExposed,                             !- Sun Exposure
  WindExposed,                            !- Wind Exposure
  ,                                       !- View Factor to Ground
  ,                                       !- Number of Vertices
  0, -100, 1,                             !- X,Y,Z Vertex 1 {m}
  0, -100, 0,                             !- X,Y,Z Vertex 2 {m}
  50, -50, 0,                             !- X,Y,Z Vertex 3 {m}
  50, -50, 1;                             !- X,Y,Z Vertex 4 {m}

OS:Surface,
  {10c69716-e9a0-4268-82fb-609809ba96d9}, !- Handle
  Surface 4,                              !- Name
  Wall,                                   !- Surface Type
  ,                                       !- Construction Name
  {a18607a9-4e6f-426d-8e20-ce4d521b779a}, !- Space Name
  Outdoors,                               !- Outside Boundary Condition
  ,                                       !- Outside Boundary Condition Object
  SunExposed,                             !- Sun Exposure
  WindExposed,                            !- Wind Exposure
  ,                                       !- View Factor to Ground
  ,                                       !- Number of Vertices
  -50, -50, 1,                            !- X,Y,Z Vertex 1 {m}
  -50, -50, 0,                            !- X,Y,Z Vertex 2 {m}
  0, -100, 0,                             !- X,Y,Z Vertex 3 {m}
  0, -100, 1;                             !- X,Y,Z Vertex 4 {m}

OS:Surface,
  {2a837d84-f5f9-41c2-b4b1-c55cc670f969}, !- Handle
  Surface 5,                              !- Name
  Wall,                                   !- Surface Type
  ,                                       !- Construction Name
  {a18607a9-4e6f-426d-8e20-ce4d521b779a}, !- Space Name
  Outdoors,                               !- Outside Boundary Condition
  ,                                       !- Outside Boundary Condition Object
  SunExposed,                             !- Sun Exposure
  WindExposed,                            !- Wind Exposure
  ,                                       !- View Factor to Ground
  ,                                       !- Number of Vertices
  0, 0, 1,                                !- X,Y,Z Vertex 1 {m}
  0, 0, 0,                                !- X,Y,Z Vertex 2 {m}
  -50, -50, 0,                            !- X,Y,Z Vertex 3 {m}
  -50, -50, 1;                            !- X,Y,Z Vertex 4 {m}

OS:Surface,
  {131d3d5d-2faf-4e7a-a624-63aa5bc384a1}, !- Handle
  Surface 6,                              !- Name
  RoofCeiling,                            !- Surface Type
  ,                                       !- Construction Name
  {a18607a9-4e6f-426d-8e20-ce4d521b779a}, !- Space Name
  Outdoors,                               !- Outside Boundary Condition
  ,                                       !- Outside Boundary Condition Object
  SunExposed,                             !- Sun Exposure
  WindExposed,                            !- Wind Exposure
  ,                                       !- View Factor to Ground
  ,                                       !- Number of Vertices
  0, -100, 1,                             !- X,Y,Z Vertex 1 {m}
  50, -50, 1,                             !- X,Y,Z Vertex 2 {m}
  0, 0, 1,                                !- X,Y,Z Vertex 3 {m}
  -50, -50, 1;                            !- X,Y,Z Vertex 4 {m}

OS:ThermalZone,
  {0fd39568-f493-4a38-b71b-cf37bc352e2f}, !- Handle
  Thermal Zone 1,                         !- Name
  ,                                       !- Multiplier
  ,                                       !- Ceiling Height {m}
  ,                                       !- Volume {m3}
  ,                                       !- Floor Area {m2}
  ,                                       !- Zone Inside Convection Algorithm
  ,                                       !- Zone Outside Convection Algorithm
  ,                                       !- Zone Conditioning Equipment List Name
  {78df61ac-7d7b-44e0-ba96-2a5144d2b5ba}, !- Zone Air Inlet Port List
  {257c4b95-a5a8-40cc-9e42-0d9652de22b9}, !- Zone Air Exhaust Port List
  {9ac57ab1-2f3f-4b02-967b-867102a7ddd5}, !- Zone Air Node Name
  ,                                       !- Zone Return Air Node Name
  ,                                       !- Primary Daylighting Control Name
  ,                                       !- Fraction of Zone Controlled by Primary Daylighting Control
  ,                                       !- Secondary Daylighting Control Name
  ,                                       !- Fraction of Zone Controlled by Secondary Daylighting Control
  ,                                       !- Illuminance Map Name
  {a55b90bf-4bc1-43f8-b2a9-bf6d3d9f7198}, !- Group Rendering Name
  ,                                       !- Thermostat Name
  No;                                     !- Use Ideal Air Loads

OS:Node,
  {df15bbb2-5561-4876-9f58-c1b7af046139}, !- Handle
  Node 1,                                 !- Name
  {9ac57ab1-2f3f-4b02-967b-867102a7ddd5}, !- Inlet Port
  ;                                       !- Outlet Port

OS:Connection,
  {9ac57ab1-2f3f-4b02-967b-867102a7ddd5}, !- Handle
  {fafc8459-081b-45d9-9846-58197f6108b9}, !- Name
  {0fd39568-f493-4a38-b71b-cf37bc352e2f}, !- Source Object
  11,                                     !- Outlet Port
  {df15bbb2-5561-4876-9f58-c1b7af046139}, !- Target Object
  2;                                      !- Inlet Port

OS:PortList,
  {78df61ac-7d7b-44e0-ba96-2a5144d2b5ba}, !- Handle
  Port List 1,                            !- Name
  {0fd39568-f493-4a38-b71b-cf37bc352e2f}; !- HVAC Component

OS:PortList,
  {257c4b95-a5a8-40cc-9e42-0d9652de22b9}, !- Handle
  Port List 2,                            !- Name
  {0fd39568-f493-4a38-b71b-cf37bc352e2f}; !- HVAC Component

OS:Sizing:Zone,
  {faa0f5a5-f2f2-42cb-9b7e-a8e7e27de153}, !- Handle
  {0fd39568-f493-4a38-b71b-cf37bc352e2f}, !- Zone or ZoneList Name
  14,                                     !- Zone Cooling Design Supply Air Temperature {C}
  40,                                     !- Zone Heating Design Supply Air Temperature {C}
  0.0085,                                 !- Zone Cooling Design Supply Air Humidity Ratio {kg-H2O/kg-air}
  0.008,                                  !- Zone Heating Design Supply Air Humidity Ratio {kg-H2O/kg-air}
  ,                                       !- Zone Heating Sizing Factor
  ,                                       !- Zone Cooling Sizing Factor
  DesignDay,                              !- Cooling Design Air Flow Method
  ,                                       !- Cooling Design Air Flow Rate {m3/s}
  ,                                       !- Cooling Minimum Air Flow per Zone Floor Area {m3/s-m2}
  ,                                       !- Cooling Minimum Air Flow {m3/s}
  ,                                       !- Cooling Minimum Air Flow Fraction
  DesignDay,                              !- Heating Design Air Flow Method
  ,                                       !- Heating Design Air Flow Rate {m3/s}
  ,                                       !- Heating Maximum Air Flow per Zone Floor Area {m3/s-m2}
  ,                                       !- Heating Maximum Air Flow {m3/s}
  ,                                       !- Heating Maximum Air Flow Fraction
  ,                                       !- Design Zone Air Distribution Effectiveness in Cooling Mode
  ;                                       !- Design Zone Air Distribution Effectiveness in Heating Mode

OS:ZoneHVAC:EquipmentList,
  {9fe6efde-eb47-4f26-9165-ac75dd4e2442}, !- Handle
  Zone HVAC Equipment List 1,             !- Name
  {0fd39568-f493-4a38-b71b-cf37bc352e2f}; !- Thermal Zone

OS:Construction,
  {67a9d98c-d980-431b-8428-a5b5823ce43b}, !- Handle
  ASHRAE 90.1-2004 ExtWall Mass ClimateZone 6, !- Name
  {79aed87e-f9f1-4d05-b437-15ebf087e114}, !- Surface Rendering Name
  {6119e650-b1e5-47fc-a8c1-de694d2074fb}, !- Layer 1
  {55379cf3-0588-4b86-bf74-423688fff06a}, !- Layer 2
  {4703cfbf-0912-4b09-af04-54d19432ec52}, !- Layer 3
  {0263a8f1-21ae-4625-8c0f-f4421a33ceac}; !- Layer 4

OS:Material,
  {6119e650-b1e5-47fc-a8c1-de694d2074fb}, !- Handle
  1IN Stucco,                             !- Name
  Smooth,                                 !- Roughness
  0.0253,                                 !- Thickness {m}
  0.691799999999999,                      !- Conductivity {W/m-K}
  1858,                                   !- Density {kg/m3}
  836.999999999999,                       !- Specific Heat {J/kg-K}
  0.9,                                    !- Thermal Absorptance
  0.92,                                   !- Solar Absorptance
  0.92;                                   !- Visible Absorptance

OS:Material,
  {55379cf3-0588-4b86-bf74-423688fff06a}, !- Handle
  8IN CONCRETE HW RefBldg,                !- Name
  Rough,                                  !- Roughness
  0.2032,                                 !- Thickness {m}
  1.311,                                  !- Conductivity {W/m-K}
  2240,                                   !- Density {kg/m3}
  836.800000000001,                       !- Specific Heat {J/kg-K}
  0.9,                                    !- Thermal Absorptance
  0.7,                                    !- Solar Absorptance
  0.7;                                    !- Visible Absorptance

OS:Material,
  {4703cfbf-0912-4b09-af04-54d19432ec52}, !- Handle
  Mass NonRes Wall Insulation-1.69,       !- Name
  MediumRough,                            !- Roughness
  0.0623673293364368,                     !- Thickness {m}
  0.049,                                  !- Conductivity {W/m-K}
  265,                                    !- Density {kg/m3}
  836.800000000001,                       !- Specific Heat {J/kg-K}
  0.9,                                    !- Thermal Absorptance
  0.7,                                    !- Solar Absorptance
  0.7;                                    !- Visible Absorptance

OS:Material,
  {0263a8f1-21ae-4625-8c0f-f4421a33ceac}, !- Handle
  1/2IN Gypsum,                           !- Name
  Smooth,                                 !- Roughness
  0.0127,                                 !- Thickness {m}
  0.16,                                   !- Conductivity {W/m-K}
  784.9,                                  !- Density {kg/m3}
  830.000000000001,                       !- Specific Heat {J/kg-K}
  0.9,                                    !- Thermal Absorptance
  0.4,                                    !- Solar Absorptance
  0.4;                                    !- Visible Absorptance

OS:StandardsInformation:Construction,
  {cab64d36-f2ab-43de-8b2e-beaef923018b}, !- Handle
  {67a9d98c-d980-431b-8428-a5b5823ce43b}, !- Construction Name
  ExteriorWall,                           !- Intended Surface Type
  Mass;                                   !- Standards Construction Type

OS:Construction,
  {56c2c3b4-70f0-4f24-9c54-a3a4f139468a}, !- Handle
  ASHRAE 90.1-2004 ExtRoof IEAD ClimateZone 7, !- Name
  {a40cf26b-e9a1-467b-bd94-328764dc25f3}, !- Surface Rendering Name
  {30028f24-6411-4e4b-8838-199e50b88dd5}, !- Layer 1
  {178a578b-e7fe-4694-9fb7-1b4a3f9ffaee}, !- Layer 2
  {3ac19517-f998-49cf-a48b-4491fb351960}; !- Layer 3

OS:Material,
  {30028f24-6411-4e4b-8838-199e50b88dd5}, !- Handle
  Roof Membrane,                          !- Name
  VeryRough,                              !- Roughness
  0.0095,                                 !- Thickness {m}
  0.16,                                   !- Conductivity {W/m-K}
  1121.29,                                !- Density {kg/m3}
  1460,                                   !- Specific Heat {J/kg-K}
  0.9,                                    !- Thermal Absorptance
  0.7,                                    !- Solar Absorptance
  0.7;                                    !- Visible Absorptance

OS:Material,
  {178a578b-e7fe-4694-9fb7-1b4a3f9ffaee}, !- Handle
  IEAD NonRes Roof Insulation-2.79,       !- Name
  MediumRough,                            !- Roughness
  0.124663450809702,                      !- Thickness {m}
  0.049,                                  !- Conductivity {W/m-K}
  265,                                    !- Density {kg/m3}
  836.800000000001,                       !- Specific Heat {J/kg-K}
  0.9,                                    !- Thermal Absorptance
  0.7,                                    !- Solar Absorptance
  0.7;                                    !- Visible Absorptance

OS:Material,
  {3ac19517-f998-49cf-a48b-4491fb351960}, !- Handle
  Metal Decking,                          !- Name
  MediumSmooth,                           !- Roughness
  0.0015,                                 !- Thickness {m}
  45.006,                                 !- Conductivity {W/m-K}
  7680,                                   !- Density {kg/m3}
  418.4,                                  !- Specific Heat {J/kg-K}
  0.9,                                    !- Thermal Absorptance
  0.6,                                    !- Solar Absorptance
  0.6;                                    !- Visible Absorptance

OS:StandardsInformation:Construction,
  {f14c5490-fd61-4e43-b6c3-8331302b8839}, !- Handle
  {56c2c3b4-70f0-4f24-9c54-a3a4f139468a}, !- Construction Name
  ExteriorRoof,                           !- Intended Surface Type
  IEAD;                                   !- Standards Construction Type

OS:Construction,
  {d4a28686-bd99-4ab5-b126-807409b36fc2}, !- Handle
  ASHRAE 90.1-2004 ExtRoof Metal ClimateZone 2, !- Name
  {7331f4fb-b0e0-4366-8046-f8dc894c7345}, !- Surface Rendering Name
  {380ac33b-a953-4530-8e51-f0bcdc8e2fd5}, !- Layer 1
  {02fb1824-e4bd-4d31-9547-f73bd1123685}, !- Layer 2
  {3ac19517-f998-49cf-a48b-4491fb351960}; !- Layer 3

OS:Material,
  {380ac33b-a953-4530-8e51-f0bcdc8e2fd5}, !- Handle
  Metal Roofing,                          !- Name
  MediumSmooth,                           !- Roughness
  0.0015,                                 !- Thickness {m}
  45.006,                                 !- Conductivity {W/m-K}
  7680,                                   !- Density {kg/m3}
  418.4,                                  !- Specific Heat {J/kg-K}
  0.9,                                    !- Thermal Absorptance
  0.6,                                    !- Solar Absorptance
  0.6;                                    !- Visible Absorptance

OS:Material,
  {02fb1824-e4bd-4d31-9547-f73bd1123685}, !- Handle
  Metal Semi-Cond Roof Insulation-1.05,   !- Name
  MediumRough,                            !- Roughness
  0.0422673301906313,                     !- Thickness {m}
  0.049,                                  !- Conductivity {W/m-K}
  265,                                    !- Density {kg/m3}
  836.800000000001,                       !- Specific Heat {J/kg-K}
  0.9,                                    !- Thermal Absorptance
  0.7,                                    !- Solar Absorptance
  0.7;                                    !- Visible Absorptance

OS:StandardsInformation:Construction,
  {3bbc8b7e-4c1e-4620-803a-3f56c0844031}, !- Handle
  {d4a28686-bd99-4ab5-b126-807409b36fc2}, !- Construction Name
  ExteriorRoof,                           !- Intended Surface Type
  Metal;                                  !- Standards Construction Type

OS:Construction,
  {b9aa1649-b7a7-4bc6-a738-be853916be01}, !- Handle
  ASHRAE 90.1-2004 ExtWindow ClimateZone 3a-3b, !- Name
  {b9f1a59a-a937-49f3-bbd0-64f7419c2909}, !- Surface Rendering Name
  {01528e8f-c3f9-4775-831e-4d610e716f90}; !- Layer 1

OS:WindowMaterial:SimpleGlazingSystem,
  {01528e8f-c3f9-4775-831e-4d610e716f90}, !- Handle
  Fixed Window 3.24/0.25/0.16,            !- Name
  3.23646,                                !- U-Factor {W/m2-K}
  0.25,                                   !- Solar Heat Gain Coefficient
  0.16;                                   !- Visible Transmittance

OS:StandardsInformation:Construction,
  {89b015d8-9371-4648-9c39-cb9a723fb952}, !- Handle
  {b9aa1649-b7a7-4bc6-a738-be853916be01}, !- Construction Name
  ExteriorWindow,                         !- Intended Surface Type
  ;                                       !- Standards Construction Type

OS:Construction,
  {04fc2062-3d33-4ccf-8c9d-d21319331503}, !- Handle
  ASHRAE 90.1-2004 ExtRoof IEAD ClimateZone 8, !- Name
  {697de874-b98d-4ce3-956d-7db11193844f}, !- Surface Rendering Name
  {30028f24-6411-4e4b-8838-199e50b88dd5}, !- Layer 1
  {b161d40f-06d1-49ba-872d-596fefef487e}, !- Layer 2
  {3ac19517-f998-49cf-a48b-4491fb351960}; !- Layer 3

OS:Material,
  {b161d40f-06d1-49ba-872d-596fefef487e}, !- Handle
  IEAD NonRes Roof Insulation-3.72,       !- Name
  MediumRough,                            !- Roughness
  0.170145232344671,                      !- Thickness {m}
  0.049,                                  !- Conductivity {W/m-K}
  265,                                    !- Density {kg/m3}
  836.800000000001,                       !- Specific Heat {J/kg-K}
  0.9,                                    !- Thermal Absorptance
  0.7,                                    !- Solar Absorptance
  0.7;                                    !- Visible Absorptance

OS:StandardsInformation:Construction,
  {634d10a9-77f3-4ee9-98e0-849ecdcce36e}, !- Handle
  {04fc2062-3d33-4ccf-8c9d-d21319331503}, !- Construction Name
  ExteriorRoof,                           !- Intended Surface Type
  IEAD;                                   !- Standards Construction Type

OS:Construction,
  {f5c196f2-7342-4756-bdd2-806b9b572390}, !- Handle
  ASHRAE 90.1-2004 ExtWall Mass ClimateZone alt-res 7, !- Name
  {3d1ec24e-ae60-4f48-b724-2aead39e7836}, !- Surface Rendering Name
  {6119e650-b1e5-47fc-a8c1-de694d2074fb}, !- Layer 1
  {55379cf3-0588-4b86-bf74-423688fff06a}, !- Layer 2
  {1d3fcefb-3dd0-4cde-956b-e9e873adf10f}, !- Layer 3
  {0263a8f1-21ae-4625-8c0f-f4421a33ceac}; !- Layer 4

OS:Material,
  {1d3fcefb-3dd0-4cde-956b-e9e873adf10f}, !- Handle
  Mass NonRes Wall Insulation-2.20,       !- Name
  MediumRough,                            !- Roughness
  0.0872609809472425,                     !- Thickness {m}
  0.049,                                  !- Conductivity {W/m-K}
  265,                                    !- Density {kg/m3}
  836.800000000001,                       !- Specific Heat {J/kg-K}
  0.9,                                    !- Thermal Absorptance
  0.7,                                    !- Solar Absorptance
  0.7;                                    !- Visible Absorptance

OS:StandardsInformation:Construction,
  {22b97445-1e45-4d07-9c30-4c2ddd08e992}, !- Handle
  {f5c196f2-7342-4756-bdd2-806b9b572390}, !- Construction Name
  ExteriorWall,                           !- Intended Surface Type
  Mass;                                   !- Standards Construction Type

OS:Construction,
  {a1d3606d-6ca0-470c-b1d9-b5c68f075d68}, !- Handle
  ASHRAE 90.1-2004 ExtWall SteelFrame ClimateZone alt-res 4-6, !- Name
  {ea41f4b9-aa82-4217-a618-8db854af689a}, !- Surface Rendering Name
  {68acfcdd-bcd7-4767-ab86-047636621495}, !- Layer 1
  {8fe353e9-7b74-4c31-8d4f-c01d49cf2fe7}, !- Layer 2
  {0263a8f1-21ae-4625-8c0f-f4421a33ceac}; !- Layer 3

OS:Material,
  {68acfcdd-bcd7-4767-ab86-047636621495}, !- Handle
  Wood Siding,                            !- Name
  MediumSmooth,                           !- Roughness
  0.01,                                   !- Thickness {m}
  0.11,                                   !- Conductivity {W/m-K}
  544.62,                                 !- Density {kg/m3}
  1210,                                   !- Specific Heat {J/kg-K}
  0.9,                                    !- Thermal Absorptance
  0.78,                                   !- Solar Absorptance
  0.78;                                   !- Visible Absorptance

OS:Material,
  {8fe353e9-7b74-4c31-8d4f-c01d49cf2fe7}, !- Handle
  Steel Frame NonRes Wall Insulation-2.75, !- Name
  MediumRough,                            !- Roughness
  0.119161363096001,                      !- Thickness {m}
  0.049,                                  !- Conductivity {W/m-K}
  265,                                    !- Density {kg/m3}
  836.800000000001,                       !- Specific Heat {J/kg-K}
  0.9,                                    !- Thermal Absorptance
  0.7,                                    !- Solar Absorptance
  0.7;                                    !- Visible Absorptance

OS:StandardsInformation:Construction,
  {1bb3d728-6579-4158-a2fa-46731619b9b7}, !- Handle
  {a1d3606d-6ca0-470c-b1d9-b5c68f075d68}, !- Construction Name
  ExteriorWall,                           !- Intended Surface Type
  SteelFramed;                            !- Standards Construction Type

OS:Construction,
  {ca639a59-2999-4cc4-bb1f-43de8d3d052e}, !- Handle
  ASHRAE 90.1-2004 ExtWall SteelFrame ClimateZone 7-8, !- Name
  {8fc972f5-65dc-435b-82d1-7e73d660688b}, !- Surface Rendering Name
  {68acfcdd-bcd7-4767-ab86-047636621495}, !- Layer 1
  {8fe353e9-7b74-4c31-8d4f-c01d49cf2fe7}, !- Layer 2
  {0263a8f1-21ae-4625-8c0f-f4421a33ceac}; !- Layer 3

OS:StandardsInformation:Construction,
  {17c3b9c5-a5c4-48fc-8f02-cc96582f2155}, !- Handle
  {ca639a59-2999-4cc4-bb1f-43de8d3d052e}, !- Construction Name
  ExteriorWall,                           !- Intended Surface Type
  SteelFramed;                            !- Standards Construction Type

OS:Construction,
  {0fea1630-46f6-47b4-89de-8ce0a12b7297}, !- Handle
  ASHRAE 90.1-2004 ExtWindow ClimateZone 3c, !- Name
  {fa22a689-244b-4808-8436-7dffa3ade30d}, !- Surface Rendering Name
  {54ddc5e9-a037-485f-9c9b-9c69b8e75008}; !- Layer 1

OS:WindowMaterial:SimpleGlazingSystem,
  {54ddc5e9-a037-485f-9c9b-9c69b8e75008}, !- Handle
  Fixed Window 5.84/0.39/0.22,            !- Name
  5.84000000000002,                       !- U-Factor {W/m2-K}
  0.39,                                   !- Solar Heat Gain Coefficient
  0.22;                                   !- Visible Transmittance

OS:StandardsInformation:Construction,
  {db6d930b-cf90-4f4e-8dfb-fd137dd01d7b}, !- Handle
  {0fea1630-46f6-47b4-89de-8ce0a12b7297}, !- Construction Name
  ExteriorWindow,                         !- Intended Surface Type
  ;                                       !- Standards Construction Type

OS:Construction,
  {aecf28b2-528a-4031-8248-bf88d71f1148}, !- Handle
  ASHRAE 90.1-2004 ExtWall Mass ClimateZone alt-res 1-2, !- Name
  {c3389aa0-9ac9-4845-908f-2e91b9c6e78e}, !- Surface Rendering Name
  {6119e650-b1e5-47fc-a8c1-de694d2074fb}, !- Layer 1
  {55379cf3-0588-4b86-bf74-423688fff06a}, !- Layer 2
  {296e054a-6c06-48db-9733-6d2210d5db95}, !- Layer 3
  {0263a8f1-21ae-4625-8c0f-f4421a33ceac}; !- Layer 4

OS:Material,
  {296e054a-6c06-48db-9733-6d2210d5db95}, !- Handle
  Mass NonRes Wall Insulation-1.17,       !- Name
  MediumRough,                            !- Roughness
  0.0365394788793099,                     !- Thickness {m}
  0.049,                                  !- Conductivity {W/m-K}
  265,                                    !- Density {kg/m3}
  836.800000000001,                       !- Specific Heat {J/kg-K}
  0.9,                                    !- Thermal Absorptance
  0.7,                                    !- Solar Absorptance
  0.7;                                    !- Visible Absorptance

OS:StandardsInformation:Construction,
  {26cec31c-b9ce-4ec2-95f4-2cf72f70aa9e}, !- Handle
  {aecf28b2-528a-4031-8248-bf88d71f1148}, !- Construction Name
  ExteriorWall,                           !- Intended Surface Type
  Mass;                                   !- Standards Construction Type

OS:Construction,
  {df807951-c23d-4cbc-8322-693b4dab577c}, !- Handle
  Interior Window,                        !- Name
  {07e6f1d4-a9d0-41fb-9134-d6188eaa9a6b}, !- Surface Rendering Name
  {ff06cdb6-5beb-4113-b75b-a6b75a303ec2}; !- Layer 1

OS:WindowMaterial:Glazing,
  {ff06cdb6-5beb-4113-b75b-a6b75a303ec2}, !- Handle
  Clear 3mm,                              !- Name
  SpectralAverage,                        !- Optical Data Type
  ,                                       !- Window Glass Spectral Data Set Name
  0.00299999999999999,                    !- Thickness {m}
  0.837,                                  !- Solar Transmittance at Normal Incidence
  0.075,                                  !- Front Side Solar Reflectance at Normal Incidence
  0,                                      !- Back Side Solar Reflectance at Normal Incidence
  0.898,                                  !- Visible Transmittance at Normal Incidence
  0.081,                                  !- Front Side Visible Reflectance at Normal Incidence
  0,                                      !- Back Side Visible Reflectance at Normal Incidence
  0,                                      !- Infrared Transmittance at Normal Incidence
  0.84,                                   !- Front Side Infrared Hemispherical Emissivity
  0.84,                                   !- Back Side Infrared Hemispherical Emissivity
  0.9,                                    !- Conductivity {W/m-K}
  1,                                      !- Dirt Correction Factor for Solar and Visible Transmittance
  No;                                     !- Solar Diffusing

OS:StandardsInformation:Construction,
  {c65977dd-8aad-4bdf-94a5-3d678f375a3f}, !- Handle
  {df807951-c23d-4cbc-8322-693b4dab577c}, !- Construction Name
  InteriorWindow,                         !- Intended Surface Type
  ;                                       !- Standards Construction Type

OS:Construction,
  {3cc638ff-44a6-407d-b001-8cb5b5e084b3}, !- Handle
  ASHRAE 90.1-2004 ExtRoof IEAD ClimateZone 5-6 1, !- Name
  {7280a1f0-8412-4381-aceb-7a3fb6074819}, !- Surface Rendering Name
  {30028f24-6411-4e4b-8838-199e50b88dd5}, !- Layer 1
  {f07c4553-a301-4af3-acea-1d13647ab6bd}, !- Layer 2
  {3ac19517-f998-49cf-a48b-4491fb351960}; !- Layer 3

OS:Material,
  {f07c4553-a301-4af3-acea-1d13647ab6bd}, !- Handle
  IEAD NonRes Roof Insulation-2.85,       !- Name
  MediumRough,                            !- Roughness
  0.127338688569477,                      !- Thickness {m}
  0.049,                                  !- Conductivity {W/m-K}
  265,                                    !- Density {kg/m3}
  836.800000000001,                       !- Specific Heat {J/kg-K}
  0.9,                                    !- Thermal Absorptance
  0.7,                                    !- Solar Absorptance
  0.7;                                    !- Visible Absorptance

OS:StandardsInformation:Construction,
  {a6e39dcc-13e5-401e-b411-0f84346301a1}, !- Handle
  {3cc638ff-44a6-407d-b001-8cb5b5e084b3}, !- Construction Name
  ExteriorRoof,                           !- Intended Surface Type
  IEAD;                                   !- Standards Construction Type

OS:Construction,
  {2168d0cb-ae7a-44f3-87bc-09666c6920bc}, !- Handle
  ASHRAE 90.1-2004 ExtWall WoodFrame ClimateZone 1-7, !- Name