
Version,
  8.2;                                    !- Version Identifier

LifeCycleCost:Parameters,
  {231a8224-1592-4625-8c1a-b8e767b42751}, !- Name
  EndOfYear,                              !- Discounting Convention
  ConstantDollar,                         !- Inflation Approach
  0.03,                                   !- Real Discount Rate
  ,                                       !- Nominal Discount Rate
  ,                                       !- Inflation
  ,                                       !- Base Date Month
  2011,                                   !- Base Date Year
  ,                                       !- Service Date Month
  2011,                                   !- Service Date Year
  25,                                     !- Length of Study Period in Years
  ,                                       !- Tax rate
  None;                                   !- Depreciation Method

LifeCycleCost:UsePriceEscalation,
  U.S. Avg  Commercial-Electricity,       !- Name
  Electricity,                            !- Resource
  2011,                                   !- Escalation Start Year
  January,                                !- Escalation Start Month
  0.9838,                                 !- Year Escalation 1
  0.9730,                                 !- Year Escalation 2
  0.9632,                                 !- Year Escalation 3
  0.9611,                                 !- Year Escalation 4
  0.9571,                                 !- Year Escalation 5
  0.9553,                                 !- Year Escalation 6
  0.9539,                                 !- Year Escalation 7
  0.9521,                                 !- Year Escalation 8
  0.9546,                                 !- Year Escalation 9
  0.9550,                                 !- Year Escalation 10
  0.9553,                                 !- Year Escalation 11
  0.9564,                                 !- Year Escalation 12
  0.9575,                                 !- Year Escalation 13
  0.9596,                                 !- Year Escalation 14
  0.9618,                                 !- Year Escalation 15
  0.9614,                                 !- Year Escalation 16
  0.9618,                                 !- Year Escalation 17
  0.9618,                                 !- Year Escalation 18
  0.9593,                                 !- Year Escalation 19
  0.9589,                                 !- Year Escalation 20
  0.9607,                                 !- Year Escalation 21
  0.9625,                                 !- Year Escalation 22
  0.9650,                                 !- Year Escalation 23
  0.9708,                                 !- Year Escalation 24
  0.9751,                                 !- Year Escalation 25
  0.9762,                                 !- Year Escalation 26
  0.9766,                                 !- Year Escalation 27
  0.9766,                                 !- Year Escalation 28
  0.9769,                                 !- Year Escalation 29
  0.9773;                                 !- Year Escalation 30

LifeCycleCost:UsePriceEscalation,
  U.S. Avg  Commercial-Distillate Oil,    !- Name
  FuelOil#1,                              !- Resource
  2011,                                   !- Escalation Start Year
  January,                                !- Escalation Start Month
  0.9714,                                 !- Year Escalation 1
  0.9730,                                 !- Year Escalation 2
  0.9942,                                 !- Year Escalation 3
  1.0164,                                 !- Year Escalation 4
  1.0541,                                 !- Year Escalation 5
  1.0928,                                 !- Year Escalation 6
  1.1267,                                 !- Year Escalation 7
  1.1580,                                 !- Year Escalation 8
  1.1792,                                 !- Year Escalation 9
  1.1967,                                 !- Year Escalation 10
  1.2200,                                 !- Year Escalation 11
  1.2333,                                 !- Year Escalation 12
  1.2566,                                 !- Year Escalation 13
  1.2709,                                 !- Year Escalation 14
  1.2826,                                 !- Year Escalation 15
  1.2985,                                 !- Year Escalation 16
  1.3102,                                 !- Year Escalation 17
  1.3250,                                 !- Year Escalation 18
  1.3261,                                 !- Year Escalation 19
  1.3282,                                 !- Year Escalation 20
  1.3324,                                 !- Year Escalation 21
  1.3356,                                 !- Year Escalation 22
  1.3431,                                 !- Year Escalation 23
  1.3510,                                 !- Year Escalation 24
  1.3568,                                 !- Year Escalation 25
  1.3606,                                 !- Year Escalation 26
  1.3637,                                 !- Year Escalation 27
  1.3674,                                 !- Year Escalation 28
  1.3706,                                 !- Year Escalation 29
  1.3743;                                 !- Year Escalation 30

LifeCycleCost:UsePriceEscalation,
  U.S. Avg  Commercial-Residual Oil,      !- Name
  FuelOil#2,                              !- Resource
  2011,                                   !- Escalation Start Year
  January,                                !- Escalation Start Month
  0.8469,                                 !- Year Escalation 1
  0.8257,                                 !- Year Escalation 2
  0.8681,                                 !- Year Escalation 3
  0.8988,                                 !- Year Escalation 4
  0.9289,                                 !- Year Escalation 5
  0.9604,                                 !- Year Escalation 6
  0.9897,                                 !- Year Escalation 7
  1.0075,                                 !- Year Escalation 8
  1.0314,                                 !- Year Escalation 9
  1.0554,                                 !- Year Escalation 10
  1.0861,                                 !- Year Escalation 11
  1.1278,                                 !- Year Escalation 12
  1.1497,                                 !- Year Escalation 13
  1.1620,                                 !- Year Escalation 14
  1.1743,                                 !- Year Escalation 15
  1.1852,                                 !- Year Escalation 16
  1.1948,                                 !- Year Escalation 17
  1.2037,                                 !- Year Escalation 18
  1.2071,                                 !- Year Escalation 19
  1.2119,                                 !- Year Escalation 20
  1.2139,                                 !- Year Escalation 21
  1.2194,                                 !- Year Escalation 22
  1.2276,                                 !- Year Escalation 23
  1.2365,                                 !- Year Escalation 24
  1.2420,                                 !- Year Escalation 25
  1.2461,                                 !- Year Escalation 26
  1.2509,                                 !- Year Escalation 27
  1.2550,                                 !- Year Escalation 28
  1.2591,                                 !- Year Escalation 29
  1.2638;                                 !- Year Escalation 30

LifeCycleCost:UsePriceEscalation,
  U.S. Avg  Commercial-Natural gas,       !- Name
  NaturalGas,                             !- Resource
  2011,                                   !- Escalation Start Year
  January,                                !- Escalation Start Month
  0.9823,                                 !- Year Escalation 1
  0.9557,                                 !- Year Escalation 2
  0.9279,                                 !- Year Escalation 3
  0.9257,                                 !- Year Escalation 4
  0.9346,                                 !- Year Escalation 5
  0.9412,                                 !- Year Escalation 6
  0.9512,                                 !- Year Escalation 7
  0.9645,                                 !- Year Escalation 8
  0.9856,                                 !- Year Escalation 9
  1.0067,                                 !- Year Escalation 10
  1.0222,                                 !- Year Escalation 11
  1.0410,                                 !- Year Escalation 12
  1.0610,                                 !- Year Escalation 13
  1.0787,                                 !- Year Escalation 14
  1.0942,                                 !- Year Escalation 15
  1.1098,                                 !- Year Escalation 16
  1.1220,                                 !- Year Escalation 17
  1.1308,                                 !- Year Escalation 18
  1.1386,                                 !- Year Escalation 19
  1.1486,                                 !- Year Escalation 20
  1.1619,                                 !- Year Escalation 21
  1.1763,                                 !- Year Escalation 22
  1.1918,                                 !- Year Escalation 23
  1.2118,                                 !- Year Escalation 24
  1.2284,                                 !- Year Escalation 25
  1.2439,                                 !- Year Escalation 26
  1.2605,                                 !- Year Escalation 27
  1.2772,                                 !- Year Escalation 28
  1.2938,                                 !- Year Escalation 29
  1.3115;                                 !- Year Escalation 30

LifeCycleCost:UsePriceEscalation,
  U.S. Avg  Commercial-Coal,              !- Name
  Coal,                                   !- Resource
  2011,                                   !- Escalation Start Year
  January,                                !- Escalation Start Month
  0.9970,                                 !- Year Escalation 1
  1.0089,                                 !- Year Escalation 2
  1.0089,                                 !- Year Escalation 3
  0.9941,                                 !- Year Escalation 4
  0.9941,                                 !- Year Escalation 5
  1.0000,                                 !- Year Escalation 6
  1.0030,                                 !- Year Escalation 7
  1.0059,                                 !- Year Escalation 8
  1.0089,                                 !- Year Escalation 9
  1.0119,                                 !- Year Escalation 10
  1.0148,                                 !- Year Escalation 11
  1.0178,                                 !- Year Escalation 12
  1.0208,                                 !- Year Escalation 13
  1.0267,                                 !- Year Escalation 14
  1.0297,                                 !- Year Escalation 15
  1.0356,                                 !- Year Escalation 16
  1.0415,                                 !- Year Escalation 17
  1.0534,                                 !- Year Escalation 18
  1.0564,                                 !- Year Escalation 19
  1.0593,                                 !- Year Escalation 20
  1.0653,                                 !- Year Escalation 21
  1.0712,                                 !- Year Escalation 22
  1.0742,                                 !- Year Escalation 23
  1.0801,                                 !- Year Escalation 24
  1.0831,                                 !- Year Escalation 25
  1.0831,                                 !- Year Escalation 26
  1.0861,                                 !- Year Escalation 27
  1.0890,                                 !- Year Escalation 28
  1.0920,                                 !- Year Escalation 29
  1.0950;                                 !- Year Escalation 30

Building,
  Building 1,                             !- Name
  0,                                      !- North Axis {deg}
  ,                                       !- Terrain
  ,                                       !- Loads Convergence Tolerance Value
  ,                                       !- Temperature Convergence Tolerance Value {deltaC}
  ,                                       !- Solar Distribution
  ,                                       !- Maximum Number of Warmup Days
  ;                                       !- Minimum Number of Warmup Days

Zone,
  Thermal Zone 1,                         !- Name
  -0,                                     !- Direction of Relative North {deg}
  18.82,                                  !- X Origin {m}
  14.63,                                  !- Y Origin {m}
  64.5,                                   !- Z Origin {m}
  ,                                       !- Type
  ,                                       !- Multiplier
  ,                                       !- Ceiling Height {m}
  ,                                       !- Volume {m3}
  ,                                       !- Floor Area {m2}
  ,                                       !- Zone Inside Convection Algorithm
  ;                                       !- Zone Outside Convection Algorithm

BuildingSurface:Detailed,
  Surface 450,                            !- Name
  Wall,                                   !- Surface Type
  ASHRAE 90.1-2004 ExtWall Mass ClimateZone 6, !- Construction Name
  Thermal Zone 1,                         !- Zone Name
  Outdoors,                               !- Outside Boundary Condition
  ,                                       !- Outside Boundary Condition Object
  SunExposed,                             !- Sun Exposure
  WindExposed,                            !- Wind Exposure
  ,                                       !- View Factor to Ground
  ,                                       !- Number of Vertices
  0, -3.66, 3,                            !- X,Y,Z Vertex 1 {m}
  0, -3.66, 0,                            !- X,Y,Z Vertex 2 {m}
  0, 0, 0,                                !- X,Y,Z Vertex 3 {m}
  0, 0, 3;                                !- X,Y,Z Vertex 4 {m}

FenestrationSurface:Detailed,
  Sub Surface 149,                        !- Name
  Window,                                 !- Surface Type
  ASHRAE 90.1-2004 ExtWindow ClimateZone 4-6, !- Construction Name
  Surface 450,                            !- Building Surface Name
  ,                                       !- Outside Boundary Condition Object
  ,                                       !- View Factor to Ground
  ,                                       !- Shading Control Name
  ,                                       !- Frame and Divider Name
  ,                                       !- Multiplier
  ,                                       !- Number of Vertices
  0, -3.6346, 2.97154180427796,           !- X,Y,Z Vertex 1 {m}
  0, -3.6346, 0.0254,                     !- X,Y,Z Vertex 2 {m}
  0, -0.0254000000000003, 0.0254,         !- X,Y,Z Vertex 3 {m}
  0, -0.0254000000000003, 2.97154180427796; !- X,Y,Z Vertex 4 {m}

BuildingSurface:Detailed,
  Surface 451,                            !- Name
  Wall,                                   !- Surface Type
  ASHRAE 90.1-2004 ExtWall Mass ClimateZone 6, !- Construction Name
  Thermal Zone 1,                         !- Zone Name
  Outdoors,                               !- Outside Boundary Condition
  ,                                       !- Outside Boundary Condition Object
  SunExposed,                             !- Sun Exposure
  WindExposed,                            !- Wind Exposure
  ,                                       !- View Factor to Ground
  ,                                       !- Number of Vertices
  0, -7.32, 3,                            !- X,Y,Z Vertex 1 {m}
  0, -7.32, 0,                            !- X,Y,Z Vertex 2 {m}
  0, -3.66, 0,                            !- X,Y,Z Vertex 3 {m}
  0, -3.66, 3;                            !- X,Y,Z Vertex 4 {m}

FenestrationSurface:Detailed,
  Sub Surface 134,                        !- Name
  Window,                                 !- Surface Type
  ASHRAE 90.1-2004 ExtWindow ClimateZone 4-6, !- Construction Name
  Surface 451,                            !- Building Surface Name
  ,                                       !- Outside Boundary Condition Object
  ,                                       !- View Factor to Ground
  ,                                       !- Shading Control Name
  ,                                       !- Frame and Divider Name
  ,                                       !- Multiplier
  ,                                       !- Number of Vertices
  0, -7.2946, 2.97154180427796,           !- X,Y,Z Vertex 1 {m}
  0, -7.2946, 0.0254,                     !- X,Y,Z Vertex 2 {m}
  0, -3.6854, 0.0254,                     !- X,Y,Z Vertex 3 {m}
  0, -3.6854, 2.97154180427796;           !- X,Y,Z Vertex 4 {m}

BuildingSurface:Detailed,
  Surface 452,                            !- Name
  Wall,                                   !- Surface Type
  ASHRAE 90.1-2004 ExtWall Mass ClimateZone 6, !- Construction Name
  Thermal Zone 1,                         !- Zone Name
  Outdoors,                               !- Outside Boundary Condition
  ,                                       !- Outside Boundary Condition Object
  SunExposed,                             !- Sun Exposure
  WindExposed,                            !- Wind Exposure
  ,                                       !- View Factor to Ground
  ,                                       !- Number of Vertices
  -4.705, -7.32, 3,                       !- X,Y,Z Vertex 1 {m}
  -4.705, -7.32, 0,                       !- X,Y,Z Vertex 2 {m}
  0, -7.32, 0,                            !- X,Y,Z Vertex 3 {m}
  0, -7.32, 3;                            !- X,Y,Z Vertex 4 {m}

FenestrationSurface:Detailed,
  Sub Surface 141,                        !- Name
  Window,                                 !- Surface Type
  ASHRAE 90.1-2004 ExtWindow ClimateZone 4-6, !- Construction Name
  Surface 452,                            !- Building Surface Name
  ,                                       !- Outside Boundary Condition Object
  ,                                       !- View Factor to Ground
  ,                                       !- Shading Control Name
  ,                                       !- Frame and Divider Name
  ,                                       !- Multiplier
  ,                                       !- Number of Vertices
  -4.6796, -7.32, 2.96236043358687,       !- X,Y,Z Vertex 1 {m}
  -4.6796, -7.32, 0.0254,                 !- X,Y,Z Vertex 2 {m}
  -0.0253999999999994, -7.32, 0.0254,     !- X,Y,Z Vertex 3 {m}
  -0.0253999999999994, -7.32, 2.96236043358687; !- X,Y,Z Vertex 4 {m}

BuildingSurface:Detailed,
  Surface 453,                            !- Name
  Wall,                                   !- Surface Type
  ASHRAE 90.1-2004 ExtWall Mass ClimateZone 6, !- Construction Name
  Thermal Zone 1,                         !- Zone Name
  Outdoors,                               !- Outside Boundary Condition
  ,                                       !- Outside Boundary Condition Object
  SunExposed,                             !- Sun Exposure
  WindExposed,                            !- Wind Exposure
  ,                                       !- View Factor to Ground
  ,                                       !- Number of Vertices
  -9.41, -7.32, 3,                        !- X,Y,Z Vertex 1 {m}
  -9.41, -7.32, 0,                        !- X,Y,Z Vertex 2 {m}
  -4.705, -7.32, 0,                       !- X,Y,Z Vertex 3 {m}
  -4.705, -7.32, 3;                       !- X,Y,Z Vertex 4 {m}

FenestrationSurface:Detailed,
  Sub Surface 142,                        !- Name
  Window,                                 !- Surface Type
  ASHRAE 90.1-2004 ExtWindow ClimateZone 4-6, !- Construction Name
  Surface 453,                            !- Building Surface Name
  ,                                       !- Outside Boundary Condition Object
  ,                                       !- View Factor to Ground
  ,                                       !- Shading Control Name
  ,                                       !- Frame and Divider Name
  ,                                       !- Multiplier
  ,                                       !- Number of Vertices
  -9.3846, -7.32, 2.96236043358687,       !- X,Y,Z Vertex 1 {m}
  -9.3846, -7.32, 0.0254,                 !- X,Y,Z Vertex 2 {m}
  -4.7304, -7.32, 0.0254,                 !- X,Y,Z Vertex 3 {m}
  -4.7304, -7.32, 2.96236043358687;       !- X,Y,Z Vertex 4 {m}

BuildingSurface:Detailed,
  Surface 454,                            !- Name
  Wall,                                   !- Surface Type
  ASHRAE 90.1-2004 ExtWall Mass ClimateZone 6, !- Construction Name
  Thermal Zone 1,                         !- Zone Name
  Outdoors,                               !- Outside Boundary Condition
  ,                                       !- Outside Boundary Condition Object
  SunExposed,                             !- Sun Exposure
  WindExposed,                            !- Wind Exposure
  ,                                       !- View Factor to Ground
  ,                                       !- Number of Vertices
  -9.41, -14.63, 3,                       !- X,Y,Z Vertex 1 {m}
  -9.41, -14.63, 0,                       !- X,Y,Z Vertex 2 {m}
  -9.41, -7.32, 0,                        !- X,Y,Z Vertex 3 {m}
  -9.41, -7.32, 3;                        !- X,Y,Z Vertex 4 {m}

FenestrationSurface:Detailed,
  Sub Surface 133,                        !- Name
  Window,                                 !- Surface Type
  ASHRAE 90.1-2004 ExtWindow ClimateZone 4-6, !- Construction Name
  Surface 454,                            !- Building Surface Name
  ,                                       !- Outside Boundary Condition Object
  ,                                       !- View Factor to Ground
  ,                                       !- Shading Control Name
  ,                                       !- Frame and Divider Name
  ,                                       !- Multiplier
  ,                                       !- Number of Vertices
  -9.41, -14.6046, 2.95098098688561,      !- X,Y,Z Vertex 1 {m}
  -9.41, -14.6046, 0.0254,                !- X,Y,Z Vertex 2 {m}
  -9.41, -7.3454, 0.0254,                 !- X,Y,Z Vertex 3 {m}
  -9.41, -7.3454, 2.95098098688561;       !- X,Y,Z Vertex 4 {m}

BuildingSurface:Detailed,
  Surface 455,                            !- Name
  Wall,                                   !- Surface Type
  ASHRAE 90.1-2004 ExtWall Mass ClimateZone 6, !- Construction Name
  Thermal Zone 1,                         !- Zone Name
  Outdoors,                               !- Outside Boundary Condition
  ,                                       !- Outside Boundary Condition Object
  SunExposed,                             !- Sun Exposure
  WindExposed,                            !- Wind Exposure
  ,                                       !- View Factor to Ground
  ,                                       !- Number of Vertices
  -9.41, -21.94, 3,                       !- X,Y,Z Vertex 1 {m}
  -9.41, -21.94, 0,                       !- X,Y,Z Vertex 2 {m}
  -9.41, -14.63, 0,                       !- X,Y,Z Vertex 3 {m}
  -9.41, -14.63, 3;                       !- X,Y,Z Vertex 4 {m}

FenestrationSurface:Detailed,
  Sub Surface 131,                        !- Name
  Window,                                 !- Surface Type
  ASHRAE 90.1-2004 ExtWindow ClimateZone 4-6, !- Construction Name
  Surface 455,                            !- Building Surface Name
  ,                                       !- Outside Boundary Condition Object
  ,                                       !- View Factor to Ground
  ,                                       !- Shading Control Name
  ,                                       !- Frame and Divider Name
  ,                                       !- Multiplier
  ,                                       !- Number of Vertices
  -9.41, -21.9146, 2.95098098688561,      !- X,Y,Z Vertex 1 {m}
  -9.41, -21.9146, 0.0254,                !- X,Y,Z Vertex 2 {m}
  -9.41, -14.6554, 0.0254,                !- X,Y,Z Vertex 3 {m}
  -9.41, -14.6554, 2.95098098688561;      !- X,Y,Z Vertex 4 {m}

BuildingSurface:Detailed,
  Surface 456,                            !- Name
  Wall,                                   !- Surface Type
  ASHRAE 90.1-2004 ExtWall Mass ClimateZone 6, !- Construction Name
  Thermal Zone 1,                         !- Zone Name
  Outdoors,                               !- Outside Boundary Condition
  ,                                       !- Outside Boundary Condition Object
  SunExposed,                             !- Sun Exposure
  WindExposed,                            !- Wind Exposure
  ,                                       !- View Factor to Ground
  ,                                       !- Number of Vertices
  -4.705, -21.94, 3,                      !- X,Y,Z Vertex 1 {m}
  -4.705, -21.94, 0,                      !- X,Y,Z Vertex 2 {m}
  -9.41, -21.94, 0,                       !- X,Y,Z Vertex 3 {m}
  -9.41, -21.94, 3;                       !- X,Y,Z Vertex 4 {m}

FenestrationSurface:Detailed,
  Sub Surface 148,                        !- Name
  Window,                                 !- Surface Type
  ASHRAE 90.1-2004 ExtWindow ClimateZone 4-6, !- Construction Name
  Surface 456,                            !- Building Surface Name
  ,                                       !- Outside Boundary Condition Object
  ,                                       !- View Factor to Ground
  ,                                       !- Shading Control Name
  ,                                       !- Frame and Divider Name
  ,                                       !- Multiplier
  ,                                       !- Number of Vertices
  -4.7304, -21.94, 2.96236043358687,      !- X,Y,Z Vertex 1 {m}
  -4.7304, -21.94, 0.0254,                !- X,Y,Z Vertex 2 {m}
  -9.3846, -21.94, 0.0254,                !- X,Y,Z Vertex 3 {m}
  -9.3846, -21.94, 2.96236043358687;      !- X,Y,Z Vertex 4 {m}

BuildingSurface:Detailed,
  Surface 457,                            !- Name
  Wall,                                   !- Surface Type
  ASHRAE 90.1-2004 ExtWall Mass ClimateZone 6, !- Construction Name
  Thermal Zone 1,                         !- Zone Name
  Outdoors,                               !- Outside Boundary Condition
  ,                                       !- Outside Boundary Condition Object
  SunExposed,                             !- Sun Exposure
  WindExposed,                            !- Wind Exposure
  ,                                       !- View Factor to Ground
  ,                                       !- Number of Vertices
  0, -21.94, 3,                           !- X,Y,Z Vertex 1 {m}
  0, -21.94, 0,                           !- X,Y,Z Vertex 2 {m}
  -4.705, -21.94, 0,                      !- X,Y,Z Vertex 3 {m}
  -4.705, -21.94, 3;                      !- X,Y,Z Vertex 4 {m}

FenestrationSurface:Detailed,
  Sub Surface 150,                        !- Name
  Window,                                 !- Surface Type
  ASHRAE 90.1-2004 ExtWindow ClimateZone 4-6, !- Construction Name
  Surface 457,                            !- Building Surface Name
  ,                                       !- Outside Boundary Condition Object
  ,                                       !- View Factor to Ground
  ,                                       !- Shading Control Name
  ,                                       !- Frame and Divider Name
  ,                                       !- Multiplier
  ,                                       !- Number of Vertices
  -0.0254, -21.94, 2.96236043358687,      !- X,Y,Z Vertex 1 {m}
  -0.0254, -21.94, 0.0254,                !- X,Y,Z Vertex 2 {m}
  -4.6796, -21.94, 0.0254,                !- X,Y,Z Vertex 3 {m}
  -4.6796, -21.94, 2.96236043358687;      !- X,Y,Z Vertex 4 {m}

BuildingSurface:Detailed,
  Surface 458,                            !- Name
  Wall,                                   !- Surface Type
  ASHRAE 90.1-2004 ExtWall Mass ClimateZone 6, !- Construction Name
  Thermal Zone 1,                         !- Zone Name
  Outdoors,                               !- Outside Boundary Condition
  ,                                       !- Outside Boundary Condition Object
  SunExposed,                             !- Sun Exposure
  WindExposed,                            !- Wind Exposure
  ,                                       !- View Factor to Ground
  ,                                       !- Number of Vertices
  0, -25.6, 3,                            !- X,Y,Z Vertex 1 {m}
  0, -25.6, 0,                            !- X,Y,Z Vertex 2 {m}
  0, -21.94, 0,                           !- X,Y,Z Vertex 3 {m}
  0, -21.94, 3;                           !- X,Y,Z Vertex 4 {m}

FenestrationSurface:Detailed,
  Sub Surface 154,                        !- Name
  Window,                                 !- Surface Type
  ASHRAE 90.1-2004 ExtWindow ClimateZone 4-6, !- Construction Name
  Surface 458,                            !- Building Surface Name
  ,                                       !- Outside Boundary Condition Object
  ,                                       !- View Factor to Ground
  ,                                       !- Shading Control Name
  ,                                       !- Frame and Divider Name
  ,                                       !- Multiplier
  ,                                       !- Number of Vertices
  0, -25.5746, 2.97154180427796,          !- X,Y,Z Vertex 1 {m}
  0, -25.5746, 0.0254,                    !- X,Y,Z Vertex 2 {m}
  0, -21.9654, 0.0254,                    !- X,Y,Z Vertex 3 {m}
  0, -21.9654, 2.97154180427796;          !- X,Y,Z Vertex 4 {m}

BuildingSurface:Detailed,
  Surface 459,                            !- Name
  Wall,                                   !- Surface Type
  ASHRAE 90.1-2004 ExtWall Mass ClimateZone 6, !- Construction Name
  Thermal Zone 1,                         !- Zone Name