
OS:Version,
  {9854e434-2f44-4e5e-897b-07c115168988}, !- Handle
  1.6.0;                                  !- Version Identifier

OS:BuildingStory,
  {f29086fb-d478-4361-b015-ccfcb0be9ffa}, !- Handle
  Story 1,                                !- Name
  0,                                      !- Nominal Z Coordinate {m}
  4.5,                                    !- Nominal Floor to Floor Height {m}
  ,                                       !- Default Construction Set Name
  ,                                       !- Default Schedule Set Name
  ;                                       !- Group Rendering Name

OS:Space,
  {c1e37767-3218-43e5-953a-400a20911367}, !- Handle
  0 Core Space,                           !- Name
  ,                                       !- Space Type Name
  ,                                       !- Default Construction Set Name
  ,                                       !- Default Schedule Set Name
  -0,                                     !- Direction of Relative North {deg}
  18.82,                                  !- X Origin {m}
  14.63,                                  !- Y Origin {m}
  0,                                      !- Z Origin {m}
  {f29086fb-d478-4361-b015-ccfcb0be9ffa}, !- Building Story Name
  {d5d42c5b-5e81-40cf-b7d4-b3555056e459}; !- Thermal Zone Name

OS:Surface,
  {fed8bdc6-b008-4730-842b-37712a2ddede}, !- Handle
  Surface 1,                              !- Name
  Floor,                                  !- Surface Type
  ,                                       !- Construction Name
  {c1e37767-3218-43e5-953a-400a20911367}, !- Space Name
  Ground,                                 !- Outside Boundary Condition
  ,                                       !- Outside Boundary Condition Object
  NoSun,                                  !- Sun Exposure
  NoWind,                                 !- Wind Exposure
  ,                                       !- View Factor to Ground
  ,                                       !- Number of Vertices
  0, 0, 0,                                !- X,Y,Z Vertex 1 {m}
  0, -3.66, 0,                            !- X,Y,Z Vertex 2 {m}
  0, -7.32, 0,                            !- X,Y,Z Vertex 3 {m}
  -4.705, -7.32, 0,                       !- X,Y,Z Vertex 4 {m}
  -9.41, -7.32, 0,                        !- X,Y,Z Vertex 5 {m}
  -9.41, -14.63, 0,                       !- X,Y,Z Vertex 6 {m}
  -9.41, -21.94, 0,                       !- X,Y,Z Vertex 7 {m}
  -4.705, -21.94, 0,                      !- X,Y,Z Vertex 8 {m}
  0, -21.94, 0,                           !- X,Y,Z Vertex 9 {m}
  0, -25.6, 0,                            !- X,Y,Z Vertex 10 {m}
  0, -29.26, 0,                           !- X,Y,Z Vertex 11 {m}
  -12.5466666666667, -29.26, 0,           !- X,Y,Z Vertex 12 {m}
  -25.0933333333333, -29.26, 0,           !- X,Y,Z Vertex 13 {m}
  -37.64, -29.26, 0,                      !- X,Y,Z Vertex 14 {m}
  -37.64, -25.6, 0,                       !- X,Y,Z Vertex 15 {m}
  -37.64, -21.94, 0,                      !- X,Y,Z Vertex 16 {m}
  -32.935, -21.94, 0,                     !- X,Y,Z Vertex 17 {m}
  -28.23, -21.94, 0,                      !- X,Y,Z Vertex 18 {m}
  -28.23, -14.63, 0,                      !- X,Y,Z Vertex 19 {m}
  -28.23, -7.32, 0,                       !- X,Y,Z Vertex 20 {m}
  -32.935, -7.32, 0,                      !- X,Y,Z Vertex 21 {m}
  -37.64, -7.32, 0,                       !- X,Y,Z Vertex 22 {m}
  -37.64, -3.66, 0,                       !- X,Y,Z Vertex 23 {m}
  -37.64, 0, 0,                           !- X,Y,Z Vertex 24 {m}
  -25.0933333333333, 0, 0,                !- X,Y,Z Vertex 25 {m}
  -12.5466666666667, 0, 0;                !- X,Y,Z Vertex 26 {m}

OS:Surface,
  {b8dc511c-dd73-4366-87fa-1d8cc02f4fad}, !- Handle
  Surface 2,                              !- Name
  Wall,                                   !- Surface Type
  ,                                       !- Construction Name
  {c1e37767-3218-43e5-953a-400a20911367}, !- Space Name
  Outdoors,                               !- Outside Boundary Condition
  ,                                       !- Outside Boundary Condition Object
  SunExposed,                             !- Sun Exposure
  WindExposed,                            !- Wind Exposure
  ,                                       !- View Factor to Ground
  ,                                       !- Number of Vertices
  0, -3.66, 4.5,                          !- X,Y,Z Vertex 1 {m}
  0, -3.66, 0,                            !- X,Y,Z Vertex 2 {m}
  0, 0, 0,                                !- X,Y,Z Vertex 3 {m}
  0, 0, 4.5;                              !- X,Y,Z Vertex 4 {m}

OS:Surface,
  {4b3f3677-0313-4616-bac8-ec0d692c4cc3}, !- Handle
  Surface 3,                              !- Name
  Wall,                                   !- Surface Type
  ,                                       !- Construction Name
  {c1e37767-3218-43e5-953a-400a20911367}, !- Space Name
  Outdoors,                               !- Outside Boundary Condition
  ,                                       !- Outside Boundary Condition Object
  SunExposed,                             !- Sun Exposure
  WindExposed,                            !- Wind Exposure
  ,                                       !- View Factor to Ground
  ,                                       !- Number of Vertices
  0, -7.32, 4.5,                          !- X,Y,Z Vertex 1 {m}
  0, -7.32, 0,                            !- X,Y,Z Vertex 2 {m}
  0, -3.66, 0,                            !- X,Y,Z Vertex 3 {m}
  0, -3.66, 4.5;                          !- X,Y,Z Vertex 4 {m}

OS:Surface,
  {6186580a-8287-4b7c-92a0-a4e55f1189c1}, !- Handle
  Surface 4,                              !- Name
  Wall,                                   !- Surface Type
  ,                                       !- Construction Name
  {c1e37767-3218-43e5-953a-400a20911367}, !- Space Name
  Outdoors,                               !- Outside Boundary Condition
  ,                                       !- Outside Boundary Condition Object
  SunExposed,                             !- Sun Exposure
  WindExposed,                            !- Wind Exposure
  ,                                       !- View Factor to Ground
  ,                                       !- Number of Vertices
  -4.705, -7.32, 4.5,                     !- X,Y,Z Vertex 1 {m}
  -4.705, -7.32, 0,                       !- X,Y,Z Vertex 2 {m}
  0, -7.32, 0,                            !- X,Y,Z Vertex 3 {m}
  0, -7.32, 4.5;                          !- X,Y,Z Vertex 4 {m}

OS:Surface,
  {46b47b0e-63ba-483e-a43e-f238d7529a4a}, !- Handle
  Surface 5,                              !- Name
  Wall,                                   !- Surface Type
  ,                                       !- Construction Name
  {c1e37767-3218-43e5-953a-400a20911367}, !- Space Name
  Outdoors,                               !- Outside Boundary Condition
  ,                                       !- Outside Boundary Condition Object
  SunExposed,                             !- Sun Exposure
  WindExposed,                            !- Wind Exposure
  ,                                       !- View Factor to Ground
  ,                                       !- Number of Vertices
  -9.41, -7.32, 4.5,                      !- X,Y,Z Vertex 1 {m}
  -9.41, -7.32, 0,                        !- X,Y,Z Vertex 2 {m}
  -4.705, -7.32, 0,                       !- X,Y,Z Vertex 3 {m}
  -4.705, -7.32, 4.5;                     !- X,Y,Z Vertex 4 {m}

OS:Surface,
  {cc29a6d0-445f-4d19-a017-c9d099f9db01}, !- Handle
  Surface 6,                              !- Name
  Wall,                                   !- Surface Type
  ,                                       !- Construction Name
  {c1e37767-3218-43e5-953a-400a20911367}, !- Space Name
  Outdoors,                               !- Outside Boundary Condition
  ,                                       !- Outside Boundary Condition Object
  SunExposed,                             !- Sun Exposure
  WindExposed,                            !- Wind Exposure
  ,                                       !- View Factor to Ground
  ,                                       !- Number of Vertices
  -9.41, -14.63, 4.5,                     !- X,Y,Z Vertex 1 {m}
  -9.41, -14.63, 0,                       !- X,Y,Z Vertex 2 {m}
  -9.41, -7.32, 0,                        !- X,Y,Z Vertex 3 {m}
  -9.41, -7.32, 4.5;                      !- X,Y,Z Vertex 4 {m}

OS:Surface,
  {173e2379-d0cf-4dbb-9935-553a27cf2bed}, !- Handle
  Surface 7,                              !- Name
  Wall,                                   !- Surface Type
  ,                                       !- Construction Name
  {c1e37767-3218-43e5-953a-400a20911367}, !- Space Name
  Outdoors,                               !- Outside Boundary Condition
  ,                                       !- Outside Boundary Condition Object
  SunExposed,                             !- Sun Exposure
  WindExposed,                            !- Wind Exposure
  ,                                       !- View Factor to Ground
  ,                                       !- Number of Vertices
  -9.41, -21.94, 4.5,                     !- X,Y,Z Vertex 1 {m}
  -9.41, -21.94, 0,                       !- X,Y,Z Vertex 2 {m}
  -9.41, -14.63, 0,                       !- X,Y,Z Vertex 3 {m}
  -9.41, -14.63, 4.5;                     !- X,Y,Z Vertex 4 {m}

OS:Surface,
  {2f12ce7e-1d2a-4b3c-857c-2966ec61499f}, !- Handle
  Surface 8,                              !- Name
  Wall,                                   !- Surface Type
  ,                                       !- Construction Name
  {c1e37767-3218-43e5-953a-400a20911367}, !- Space Name
  Outdoors,                               !- Outside Boundary Condition
  ,                                       !- Outside Boundary Condition Object
  SunExposed,                             !- Sun Exposure
  WindExposed,                            !- Wind Exposure
  ,                                       !- View Factor to Ground
  ,                                       !- Number of Vertices
  -4.705, -21.94, 4.5,                    !- X,Y,Z Vertex 1 {m}
  -4.705, -21.94, 0,                      !- X,Y,Z Vertex 2 {m}
  -9.41, -21.94, 0,                       !- X,Y,Z Vertex 3 {m}
  -9.41, -21.94, 4.5;                     !- X,Y,Z Vertex 4 {m}

OS:Surface,
  {2e782b99-e075-4a31-b636-7540be690689}, !- Handle
  Surface 9,                              !- Name
  Wall,                                   !- Surface Type
  ,                                       !- Construction Name
  {c1e37767-3218-43e5-953a-400a20911367}, !- Space Name
  Outdoors,                               !- Outside Boundary Condition
  ,                                       !- Outside Boundary Condition Object
  SunExposed,                             !- Sun Exposure
  WindExposed,                            !- Wind Exposure
  ,                                       !- View Factor to Ground
  ,                                       !- Number of Vertices
  0, -21.94, 4.5,                         !- X,Y,Z Vertex 1 {m}
  0, -21.94, 0,                           !- X,Y,Z Vertex 2 {m}
  -4.705, -21.94, 0,                      !- X,Y,Z Vertex 3 {m}
  -4.705, -21.94, 4.5;                    !- X,Y,Z Vertex 4 {m}

OS:Surface,
  {c3ac4c2b-f103-42d9-9ffa-c5850c327446}, !- Handle
  Surface 10,                             !- Name
  Wall,                                   !- Surface Type
  ,                                       !- Construction Name
  {c1e37767-3218-43e5-953a-400a20911367}, !- Space Name
  Outdoors,                               !- Outside Boundary Condition
  ,                                       !- Outside Boundary Condition Object
  SunExposed,                             !- Sun Exposure
  WindExposed,                            !- Wind Exposure
  ,                                       !- View Factor to Ground
  ,                                       !- Number of Vertices
  0, -25.6, 4.5,                          !- X,Y,Z Vertex 1 {m}
  0, -25.6, 0,                            !- X,Y,Z Vertex 2 {m}
  0, -21.94, 0,                           !- X,Y,Z Vertex 3 {m}
  0, -21.94, 4.5;                         !- X,Y,Z Vertex 4 {m}

OS:Surface,
  {4b84b259-b9de-4c02-9c8d-5e94039644ce}, !- Handle
  Surface 11,                             !- Name
  Wall,                                   !- Surface Type
  ,                                       !- Construction Name
  {c1e37767-3218-43e5-953a-400a20911367}, !- Space Name
  Outdoors,                               !- Outside Boundary Condition
  ,                                       !- Outside Boundary Condition Object
  SunExposed,                             !- Sun Exposure
  WindExposed,                            !- Wind Exposure
  ,                                       !- View Factor to Ground
  ,                                       !- Number of Vertices
  0, -29.26, 4.5,                         !- X,Y,Z Vertex 1 {m}
  0, -29.26, 0,                           !- X,Y,Z Vertex 2 {m}
  0, -25.6, 0,                            !- X,Y,Z Vertex 3 {m}
  0, -25.6, 4.5;                          !- X,Y,Z Vertex 4 {m}

OS:Surface,
  {c610084a-a62d-4957-9271-ca97a8573f9f}, !- Handle
  Surface 12,                             !- Name
  Wall,                                   !- Surface Type
  ,                                       !- Construction Name
  {c1e37767-3218-43e5-953a-400a20911367}, !- Space Name
  Outdoors,                               !- Outside Boundary Condition
  ,                                       !- Outside Boundary Condition Object
  SunExposed,                             !- Sun Exposure
  WindExposed,                            !- Wind Exposure
  ,                                       !- View Factor to Ground
  ,                                       !- Number of Vertices
  -12.5466666666667, -29.26, 4.5,         !- X,Y,Z Vertex 1 {m}
  -12.5466666666667, -29.26, 0,           !- X,Y,Z Vertex 2 {m}
  0, -29.26, 0,                           !- X,Y,Z Vertex 3 {m}
  0, -29.26, 4.5;                         !- X,Y,Z Vertex 4 {m}

OS:Surface,
  {d442d04d-1641-4b44-9170-86a81c5a4654}, !- Handle
  Surface 13,                             !- Name
  Wall,                                   !- Surface Type
  ,                                       !- Construction Name
  {c1e37767-3218-43e5-953a-400a20911367}, !- Space Name
  Outdoors,                               !- Outside Boundary Condition
  ,                                       !- Outside Boundary Condition Object
  SunExposed,                             !- Sun Exposure
  WindExposed,                            !- Wind Exposure
  ,                                       !- View Factor to Ground
  ,                                       !- Number of Vertices
  -25.0933333333333, -29.26, 4.5,         !- X,Y,Z Vertex 1 {m}
  -25.0933333333333, -29.26, 0,           !- X,Y,Z Vertex 2 {m}
  -12.5466666666667, -29.26, 0,           !- X,Y,Z Vertex 3 {m}
  -12.5466666666667, -29.26, 4.5;         !- X,Y,Z Vertex 4 {m}

OS:Surface,
  {858a93c6-6a0f-4929-a746-9096ec2255f1}, !- Handle
  Surface 14,                             !- Name
  Wall,                                   !- Surface Type
  ,                                       !- Construction Name
  {c1e37767-3218-43e5-953a-400a20911367}, !- Space Name
  Outdoors,                               !- Outside Boundary Condition
  ,                                       !- Outside Boundary Condition Object
  SunExposed,                             !- Sun Exposure
  WindExposed,                            !- Wind Exposure
  ,                                       !- View Factor to Ground
  ,                                       !- Number of Vertices
  -37.64, -29.26, 4.5,                    !- X,Y,Z Vertex 1 {m}
  -37.64, -29.26, 0,                      !- X,Y,Z Vertex 2 {m}
  -25.0933333333333, -29.26, 0,           !- X,Y,Z Vertex 3 {m}
  -25.0933333333333, -29.26, 4.5;         !- X,Y,Z Vertex 4 {m}

OS:Surface,
  {a16c15f8-3b96-497d-a565-de97cdda2c7b}, !- Handle
  Surface 15,                             !- Name
  Wall,                                   !- Surface Type
  ,                                       !- Construction Name
  {c1e37767-3218-43e5-953a-400a20911367}, !- Space Name
  Outdoors,                               !- Outside Boundary Condition
  ,                                       !- Outside Boundary Condition Object
  SunExposed,                             !- Sun Exposure
  WindExposed,                            !- Wind Exposure
  ,                                       !- View Factor to Ground
  ,                                       !- Number of Vertices
  -37.64, -25.6, 4.5,                     !- X,Y,Z Vertex 1 {m}
  -37.64, -25.6, 0,                       !- X,Y,Z Vertex 2 {m}
  -37.64, -29.26, 0,                      !- X,Y,Z Vertex 3 {m}
  -37.64, -29.26, 4.5;                    !- X,Y,Z Vertex 4 {m}

OS:Surface,
  {bd457f90-7222-419e-8eaf-ebcd7137fe65}, !- Handle
  Surface 16,                             !- Name
  Wall,                                   !- Surface Type
  ,                                       !- Construction Name
  {c1e37767-3218-43e5-953a-400a20911367}, !- Space Name
  Outdoors,                               !- Outside Boundary Condition
  ,                                       !- Outside Boundary Condition Object
  SunExposed,                             !- Sun Exposure
  WindExposed,                            !- Wind Exposure
  ,                                       !- View Factor to Ground
  ,                                       !- Number of Vertices
  -37.64, -21.94, 4.5,                    !- X,Y,Z Vertex 1 {m}
  -37.64, -21.94, 0,                      !- X,Y,Z Vertex 2 {m}
  -37.64, -25.6, 0,                       !- X,Y,Z Vertex 3 {m}
  -37.64, -25.6, 4.5;                     !- X,Y,Z Vertex 4 {m}

OS:Surface,
  {77af4fa8-b027-46f5-80f5-f43017d3c47f}, !- Handle
  Surface 17,                             !- Name
  Wall,                                   !- Surface Type
  ,                                       !- Construction Name
  {c1e37767-3218-43e5-953a-400a20911367}, !- Space Name
  Outdoors,                               !- Outside Boundary Condition
  ,                                       !- Outside Boundary Condition Object
  SunExposed,                             !- Sun Exposure
  WindExposed,                            !- Wind Exposure
  ,                                       !- View Factor to Ground
  ,                                       !- Number of Vertices
  -32.935, -21.94, 4.5,                   !- X,Y,Z Vertex 1 {m}
  -32.935, -21.94, 0,                     !- X,Y,Z Vertex 2 {m}
  -37.64, -21.94, 0,                      !- X,Y,Z Vertex 3 {m}
  -37.64, -21.94, 4.5;                    !- X,Y,Z Vertex 4 {m}

OS:Surface,
  {07edb232-cf0a-4868-8cca-d35a19576ccc}, !- Handle
  Surface 18,                             !- Name
  Wall,                                   !- Surface Type
  ,                                       !- Construction Name
  {c1e37767-3218-43e5-953a-400a20911367}, !- Space Name
  Outdoors,                               !- Outside Boundary Condition
  ,                                       !- Outside Boundary Condition Object
  SunExposed,                             !- Sun Exposure
  WindExposed,                            !- Wind Exposure
  ,                                       !- View Factor to Ground
  ,                                       !- Number of Vertices
  -28.23, -21.94, 4.5,                    !- X,Y,Z Vertex 1 {m}
  -28.23, -21.94, 0,                      !- X,Y,Z Vertex 2 {m}
  -32.935, -21.94, 0,                     !- X,Y,Z Vertex 3 {m}
  -32.935, -21.94, 4.5;                   !- X,Y,Z Vertex 4 {m}

OS:Surface,
  {5b3adb86-08a3-45db-b838-e83e6e06490c}, !- Handle
  Surface 19,                             !- Name
  Wall,                                   !- Surface Type
  ,                                       !- Construction Name
  {c1e37767-3218-43e5-953a-400a20911367}, !- Space Name
  Outdoors,                               !- Outside Boundary Condition
  ,                                       !- Outside Boundary Condition Object
  SunExposed,                             !- Sun Exposure
  WindExposed,                            !- Wind Exposure
  ,                                       !- View Factor to Ground
  ,                                       !- Number of Vertices
  -28.23, -14.63, 4.5,                    !- X,Y,Z Vertex 1 {m}
  -28.23, -14.63, 0,                      !- X,Y,Z Vertex 2 {m}
  -28.23, -21.94, 0,                      !- X,Y,Z Vertex 3 {m}
  -28.23, -21.94, 4.5;                    !- X,Y,Z Vertex 4 {m}

OS:Surface,
  {c05ca5ea-420d-42d9-b8b4-aa1acd786879}, !- Handle
  Surface 20,                             !- Name
  Wall,                                   !- Surface Type
  ,                                       !- Construction Name
  {c1e37767-3218-43e5-953a-400a20911367}, !- Space Name
  Outdoors,                               !- Outside Boundary Condition
  ,                                       !- Outside Boundary Condition Object
  SunExposed,                             !- Sun Exposure
  WindExposed,                            !- Wind Exposure
  ,                                       !- View Factor to Ground
  ,                                       !- Number of Vertices
  -28.23, -7.32, 4.5,                     !- X,Y,Z Vertex 1 {m}
  -28.23, -7.32, 0,                       !- X,Y,Z Vertex 2 {m}
  -28.23, -14.63, 0,                      !- X,Y,Z Vertex 3 {m}
  -28.23, -14.63, 4.5;                    !- X,Y,Z Vertex 4 {m}

OS:Surface,
  {2c4332b3-b78d-4d93-8077-1da068de3d94}, !- Handle
  Surface 21,                             !- Name
  Wall,                                   !- Surface Type
  ,                                       !- Construction Name
  {c1e37767-3218-43e5-953a-400a20911367}, !- Space Name
  Outdoors,                               !- Outside Boundary Condition
  ,                                       !- Outside Boundary Condition Object
  SunExposed,                             !- Sun Exposure
  WindExposed,                            !- Wind Exposure
  ,                                       !- View Factor to Ground
  ,                                       !- Number of Vertices
  -32.935, -7.32, 4.5,                    !- X,Y,Z Vertex 1 {m}
  -32.935, -7.32, 0,                      !- X,Y,Z Vertex 2 {m}
  -28.23, -7.32, 0,                       !- X,Y,Z Vertex 3 {m}
  -28.23, -7.32, 4.5;                     !- X,Y,Z Vertex 4 {m}

OS:Surface,
  {8d35490c-8f09-4445-a7d0-859234f45dc4}, !- Handle
  Surface 22,                             !- Name
  Wall,                                   !- Surface Type
  ,                                       !- Construction Name
  {c1e37767-3218-43e5-953a-400a20911367}, !- Space Name
  Outdoors,                               !- Outside Boundary Condition
  ,                                       !- Outside Boundary Condition Object
  SunExposed,                             !- Sun Exposure
  WindExposed,                            !- Wind Exposure
  ,                                       !- View Factor to Ground
  ,                                       !- Number of Vertices
  -37.64, -7.32, 4.5,                     !- X,Y,Z Vertex 1 {m}
  -37.64, -7.32, 0,                       !- X,Y,Z Vertex 2 {m}
  -32.935, -7.32, 0,                      !- X,Y,Z Vertex 3 {m}
  -32.935, -7.32, 4.5;                    !- X,Y,Z Vertex 4 {m}

OS:Surface,
  {a6b40298-aae5-44fe-9b47-8447cf8e0399}, !- Handle
  Surface 23,                             !- Name
  Wall,                                   !- Surface Type
  ,                                       !- Construction Name
  {c1e37767-3218-43e5-953a-400a20911367}, !- Space Name
  Outdoors,                               !- Outside Boundary Condition
  ,                                       !- Outside Boundary Condition Object
  SunExposed,                             !- Sun Exposure
  WindExposed,                            !- Wind Exposure
  ,                                       !- View Factor to Ground
  ,                                       !- Number of Vertices
  -37.64, -3.66, 4.5,                     !- X,Y,Z Vertex 1 {m}
  -37.64, -3.66, 0,                       !- X,Y,Z Vertex 2 {m}
  -37.64, -7.32, 0,                       !- X,Y,Z Vertex 3 {m}
  -37.64, -7.32, 4.5;                     !- X,Y,Z Vertex 4 {m}

OS:Surface,
  {17d0433b-090e-4f2f-8238-a7b401c70ed7}, !- Handle
  Surface 24,                             !- Name
  Wall,                                   !- Surface Type
  ,                                       !- Construction Name
  {c1e37767-3218-43e5-953a-400a20911367}, !- Space Name
  Outdoors,                               !- Outside Boundary Condition
  ,                                       !- Outside Boundary Condition Object
  SunExposed,                             !- Sun Exposure
  WindExposed,                            !- Wind Exposure
  ,                                       !- View Factor to Ground
  ,                                       !- Number of Vertices
  -37.64, 0, 4.5,                         !- X,Y,Z Vertex 1 {m}
  -37.64, 0, 0,                           !- X,Y,Z Vertex 2 {m}
  -37.64, -3.66, 0,                       !- X,Y,Z Vertex 3 {m}
  -37.64, -3.66, 4.5;                     !- X,Y,Z Vertex 4 {m}

OS:Surface,
  {52069db8-843f-460f-8870-67593345f571}, !- Handle
  Surface 25,                             !- Name
  Wall,                                   !- Surface Type
  ,                                       !- Construction Name
  {c1e37767-3218-43e5-953a-400a20911367}, !- Space Name
  Outdoors,                               !- Outside Boundary Condition
  ,                                       !- Outside Boundary Condition Object
  SunExposed,                             !- Sun Exposure
  WindExposed,                            !- Wind Exposure
  ,                                       !- View Factor to Ground
  ,                                       !- Number of Vertices
  -25.0933333333333, 0, 4.5,              !- X,Y,Z Vertex 1 {m}
  -25.0933333333333, 0, 0,                !- X,Y,Z Vertex 2 {m}
  -37.64, 0, 0,                           !- X,Y,Z Vertex 3 {m}
  -37.64, 0, 4.5;                         !- X,Y,Z Vertex 4 {m}

OS:Surface,
  {fdcbe992-dc4f-43af-8dc0-845d71e1f8c8}, !- Handle
  Surface 26,                             !- Name
  Wall,                                   !- Surface Type
  ,                                       !- Construction Name
  {c1e37767-3218-43e5-953a-400a20911367}, !- Space Name
  Outdoors,                               !- Outside Boundary Condition
  ,                                       !- Outside Boundary Condition Object
  SunExposed,                             !- Sun Exposure
  WindExposed,                            !- Wind Exposure
  ,                                       !- View Factor to Ground
  ,                                       !- Number of Vertices
  -12.5466666666667, 0, 4.5,              !- X,Y,Z Vertex 1 {m}
  -12.5466666666667, 0, 0,                !- X,Y,Z Vertex 2 {m}
  -25.0933333333333, 0, 0,                !- X,Y,Z Vertex 3 {m}
  -25.0933333333333, 0, 4.5;              !- X,Y,Z Vertex 4 {m}

OS:Surface,
  {24975cf2-f954-4b7c-826d-2134ca62ce1b}, !- Handle
  Surface 27,                             !- Name
  Wall,                                   !- Surface Type
  ,                                       !- Construction Name
  {c1e37767-3218-43e5-953a-400a20911367}, !- Space Name
  Outdoors,                               !- Outside Boundary Condition
  ,                                       !- Outside Boundary Condition Object
  SunExposed,                             !- Sun Exposure
  WindExposed,                            !- Wind Exposure
  ,                                       !- View Factor to Ground
  ,                                       !- Number of Vertices
  0, 0, 4.5,                              !- X,Y,Z Vertex 1 {m}
  0, 0, 0,                                !- X,Y,Z Vertex 2 {m}
  -12.5466666666667, 0, 0,                !- X,Y,Z Vertex 3 {m}
  -12.5466666666667, 0, 4.5;              !- X,Y,Z Vertex 4 {m}

OS:BuildingStory,
  {a06d9982-588e-4d45-8c3c-394518f6402f}, !- Handle
  Story 2,                                !- Name
  4.5,                                    !- Nominal Z Coordinate {m}
  3,                                      !- Nominal Floor to Floor Height {m}
  ,                                       !- Default Construction Set Name
  ,                                       !- Default Schedule Set Name
  ;                                       !- Group Rendering Name

OS:Space,
  {98c3600f-9d65-40ac-bf91-456a5596d51f}, !- Handle
  0 Core Space 1,                         !- Name
  ,                                       !- Space Type Name
  ,                                       !- Default Construction Set Name
  ,                                       !- Default Schedule Set Name
  -0,                                     !- Direction of Relative North {deg}
  18.82,                                  !- X Origin {m}
  14.63,                                  !- Y Origin {m}
  4.5,                                    !- Z Origin {m}
  {a06d9982-588e-4d45-8c3c-394518f6402f}, !- Building Story Name
  {a8e07e4b-0e92-4c11-9c23-ca7d8af17047}; !- Thermal Zone Name

OS:Surface,
  {4fb333c1-e833-47e2-b569-650404432677}, !- Handle
  Surface 30,                             !- Name
  Wall,                                   !- Surface Type
  ,                                       !- Construction Name
  {98c3600f-9d65-40ac-bf91-456a5596d51f}, !- Space Name
  Outdoors,                               !- Outside Boundary Condition
  ,                                       !- Outside Boundary Condition Object
  SunExposed,                             !- Sun Exposure