
OS:Version,
  {986009c5-9e64-46a8-9771-c2bba3007371}, !- Handle
  1.7.0;                                  !- Version Identifier

OS:BuildingStory,
  {c90f5904-2501-4f2c-8907-cc7cd49189cd}, !- Handle
  Story 1,                                !- Name
  0,                                      !- Nominal Z Coordinate {m}
  3.75,                                   !- Nominal Floor to Floor Height {m}
  ,                                       !- Default Construction Set Name
  ,                                       !- Default Schedule Set Name
  ;                                       !- Group Rendering Name

OS:Space,
  {9217653c-4c9a-4800-b996-e6ae13d8c604}, !- Handle
  0 Core Space,                           !- Name
  ,                                       !- Space Type Name
  ,                                       !- Default Construction Set Name
  ,                                       !- Default Schedule Set Name
  -0,                                     !- Direction of Relative North {deg}
  -55.0553339831846,                      !- X Origin {m}
  11.667261889578,                        !- Y Origin {m}
  0,                                      !- Z Origin {m}
  {c90f5904-2501-4f2c-8907-cc7cd49189cd}, !- Building Story Name
  {ca76f553-be6f-4dc5-b6ac-cee779575e6e}; !- Thermal Zone Name

OS:Surface,
  {019d4652-4580-4cfe-a40c-92c5a6571360}, !- Handle
  Surface 1,                              !- Name
  Floor,                                  !- Surface Type
  ,                                       !- Construction Name
  {9217653c-4c9a-4800-b996-e6ae13d8c604}, !- Space Name
  Ground,                                 !- Outside Boundary Condition
  ,                                       !- Outside Boundary Condition Object
  NoSun,                                  !- Sun Exposure
  NoWind,                                 !- Wind Exposure
  ,                                       !- View Factor to Ground
  ,                                       !- Number of Vertices
  -1.4210854715202e-14, -3.19744231092045e-14, 0, !- X,Y,Z Vertex 1 {m}
  7.82303695842999, 7.82303695842997, 0,  !- X,Y,Z Vertex 2 {m}
  15.64607391686, 15.64607391686, 0,      !- X,Y,Z Vertex 3 {m}
  22.9507556161976, 8.34139221752247, 0,  !- X,Y,Z Vertex 4 {m}
  30.2554373155352, 1.03671051818487, 0,  !- X,Y,Z Vertex 5 {m}
  37.5601190148727, -6.26797118115273, 0, !- X,Y,Z Vertex 6 {m}
  44.8648007142103, -13.5726528804903, 0, !- X,Y,Z Vertex 7 {m}
  52.1694824135479, -20.8773345798279, 0, !- X,Y,Z Vertex 8 {m}
  59.4741641128855, -28.1820162791654, 0, !- X,Y,Z Vertex 9 {m}
  67.5251246043939, -20.131055787657, 0,  !- X,Y,Z Vertex 10 {m}
  75.5760850959023, -12.0800952961486, 0, !- X,Y,Z Vertex 11 {m}
  83.6270455874107, -4.0291348046402, 0,  !- X,Y,Z Vertex 12 {m}
  91.6780060789191, 4.02182568686817, 0,  !- X,Y,Z Vertex 13 {m}
  98.1430277703901, -2.44319600460273, 0, !- X,Y,Z Vertex 14 {m}
  104.608049461861, -8.90821769607368, 0, !- X,Y,Z Vertex 15 {m}
  96.6330634813788, -16.883203676556, 0,  !- X,Y,Z Vertex 16 {m}
  88.6580775008965, -24.8581896570382, 0, !- X,Y,Z Vertex 17 {m}
  80.6830915204142, -32.8331756375205, 0, !- X,Y,Z Vertex 18 {m}
  72.7081055399319, -40.8081616180028, 0, !- X,Y,Z Vertex 19 {m}
  64.7331195594496, -48.783147598485, 0,  !- X,Y,Z Vertex 20 {m}
  56.7581335789674, -56.7581335789673, 0, !- X,Y,Z Vertex 21 {m}
  49.6633668815964, -49.6633668815964, 0, !- X,Y,Z Vertex 22 {m}
  42.5686001842255, -42.5686001842255, 0, !- X,Y,Z Vertex 23 {m}
  35.4738334868546, -35.4738334868546, 0, !- X,Y,Z Vertex 24 {m}
  28.3790667894837, -28.3790667894836, 0, !- X,Y,Z Vertex 25 {m}
  21.2843000921128, -21.2843000921128, 0, !- X,Y,Z Vertex 26 {m}
  14.1895333947419, -14.1895333947418, 0, !- X,Y,Z Vertex 27 {m}
  7.09476669737089, -7.09476669737092, 0; !- X,Y,Z Vertex 28 {m}

OS:Surface,
  {1f4f3427-2f35-4636-8708-9eb38d9e268b}, !- Handle
  Surface 2,                              !- Name
  Wall,                                   !- Surface Type
  ,                                       !- Construction Name
  {9217653c-4c9a-4800-b996-e6ae13d8c604}, !- Space Name
  Outdoors,                               !- Outside Boundary Condition
  ,                                       !- Outside Boundary Condition Object
  SunExposed,                             !- Sun Exposure
  WindExposed,                            !- Wind Exposure
  ,                                       !- View Factor to Ground
  ,                                       !- Number of Vertices
  7.82303695842999, 7.82303695842997, 3.75, !- X,Y,Z Vertex 1 {m}
  7.82303695842999, 7.82303695842997, 0,  !- X,Y,Z Vertex 2 {m}
  -1.4210854715202e-14, -3.19744231092045e-14, 0, !- X,Y,Z Vertex 3 {m}
  -1.4210854715202e-14, -3.19744231092045e-14, 3.75; !- X,Y,Z Vertex 4 {m}

OS:Surface,
  {2a25fca8-f537-46ae-b054-457768979e59}, !- Handle
  Surface 3,                              !- Name
  Wall,                                   !- Surface Type
  ,                                       !- Construction Name
  {9217653c-4c9a-4800-b996-e6ae13d8c604}, !- Space Name
  Outdoors,                               !- Outside Boundary Condition
  ,                                       !- Outside Boundary Condition Object
  SunExposed,                             !- Sun Exposure
  WindExposed,                            !- Wind Exposure
  ,                                       !- View Factor to Ground
  ,                                       !- Number of Vertices
  15.64607391686, 15.64607391686, 3.75,   !- X,Y,Z Vertex 1 {m}
  15.64607391686, 15.64607391686, 0,      !- X,Y,Z Vertex 2 {m}
  7.82303695842999, 7.82303695842997, 0,  !- X,Y,Z Vertex 3 {m}
  7.82303695842999, 7.82303695842997, 3.75; !- X,Y,Z Vertex 4 {m}

OS:Surface,
  {a8fab30c-4419-4259-80e1-a822b11b358f}, !- Handle
  Surface 4,                              !- Name
  Wall,                                   !- Surface Type
  ,                                       !- Construction Name
  {9217653c-4c9a-4800-b996-e6ae13d8c604}, !- Space Name
  Outdoors,                               !- Outside Boundary Condition
  ,                                       !- Outside Boundary Condition Object
  SunExposed,                             !- Sun Exposure
  WindExposed,                            !- Wind Exposure
  ,                                       !- View Factor to Ground
  ,                                       !- Number of Vertices
  22.9507556161976, 8.34139221752247, 3.75, !- X,Y,Z Vertex 1 {m}
  22.9507556161976, 8.34139221752247, 0,  !- X,Y,Z Vertex 2 {m}
  15.64607391686, 15.64607391686, 0,      !- X,Y,Z Vertex 3 {m}
  15.64607391686, 15.64607391686, 3.75;   !- X,Y,Z Vertex 4 {m}

OS:Surface,
  {92fd671c-4f13-4926-b9f9-3797921eed1f}, !- Handle
  Surface 5,                              !- Name
  Wall,                                   !- Surface Type
  ,                                       !- Construction Name
  {9217653c-4c9a-4800-b996-e6ae13d8c604}, !- Space Name
  Outdoors,                               !- Outside Boundary Condition
  ,                                       !- Outside Boundary Condition Object
  SunExposed,                             !- Sun Exposure
  WindExposed,                            !- Wind Exposure
  ,                                       !- View Factor to Ground
  ,                                       !- Number of Vertices
  30.2554373155352, 1.03671051818487, 3.75, !- X,Y,Z Vertex 1 {m}
  30.2554373155352, 1.03671051818487, 0,  !- X,Y,Z Vertex 2 {m}
  22.9507556161976, 8.34139221752247, 0,  !- X,Y,Z Vertex 3 {m}
  22.9507556161976, 8.34139221752247, 3.75; !- X,Y,Z Vertex 4 {m}

OS:Surface,
  {e27a8de7-61bc-4177-b073-4b3e548b582e}, !- Handle
  Surface 6,                              !- Name
  Wall,                                   !- Surface Type
  ,                                       !- Construction Name
  {9217653c-4c9a-4800-b996-e6ae13d8c604}, !- Space Name
  Outdoors,                               !- Outside Boundary Condition
  ,                                       !- Outside Boundary Condition Object
  SunExposed,                             !- Sun Exposure
  WindExposed,                            !- Wind Exposure
  ,                                       !- View Factor to Ground
  ,                                       !- Number of Vertices
  37.5601190148727, -6.26797118115273, 3.75, !- X,Y,Z Vertex 1 {m}
  37.5601190148727, -6.26797118115273, 0, !- X,Y,Z Vertex 2 {m}
  30.2554373155352, 1.03671051818487, 0,  !- X,Y,Z Vertex 3 {m}
  30.2554373155352, 1.03671051818487, 3.75; !- X,Y,Z Vertex 4 {m}

OS:Surface,
  {e1cb4291-4641-47fc-9338-b5dc4dcbe1e0}, !- Handle
  Surface 7,                              !- Name
  Wall,                                   !- Surface Type
  ,                                       !- Construction Name
  {9217653c-4c9a-4800-b996-e6ae13d8c604}, !- Space Name
  Outdoors,                               !- Outside Boundary Condition
  ,                                       !- Outside Boundary Condition Object
  SunExposed,                             !- Sun Exposure
  WindExposed,                            !- Wind Exposure
  ,                                       !- View Factor to Ground
  ,                                       !- Number of Vertices
  44.8648007142103, -13.5726528804903, 3.75, !- X,Y,Z Vertex 1 {m}
  44.8648007142103, -13.5726528804903, 0, !- X,Y,Z Vertex 2 {m}
  37.5601190148727, -6.26797118115273, 0, !- X,Y,Z Vertex 3 {m}
  37.5601190148727, -6.26797118115273, 3.75; !- X,Y,Z Vertex 4 {m}

OS:Surface,
  {003b44ae-bfb1-41e4-9be6-8b950ad4b918}, !- Handle
  Surface 8,                              !- Name
  Wall,                                   !- Surface Type
  ,                                       !- Construction Name
  {9217653c-4c9a-4800-b996-e6ae13d8c604}, !- Space Name
  Outdoors,                               !- Outside Boundary Condition
  ,                                       !- Outside Boundary Condition Object
  SunExposed,                             !- Sun Exposure
  WindExposed,                            !- Wind Exposure
  ,                                       !- View Factor to Ground
  ,                                       !- Number of Vertices
  52.1694824135479, -20.8773345798279, 3.75, !- X,Y,Z Vertex 1 {m}
  52.1694824135479, -20.8773345798279, 0, !- X,Y,Z Vertex 2 {m}
  44.8648007142103, -13.5726528804903, 0, !- X,Y,Z Vertex 3 {m}
  44.8648007142103, -13.5726528804903, 3.75; !- X,Y,Z Vertex 4 {m}

OS:Surface,
  {3a32dd49-dd3e-4b20-bcfb-115b97385baf}, !- Handle
  Surface 9,                              !- Name
  Wall,                                   !- Surface Type
  ,                                       !- Construction Name
  {9217653c-4c9a-4800-b996-e6ae13d8c604}, !- Space Name
  Outdoors,                               !- Outside Boundary Condition
  ,                                       !- Outside Boundary Condition Object
  SunExposed,                             !- Sun Exposure
  WindExposed,                            !- Wind Exposure
  ,                                       !- View Factor to Ground
  ,                                       !- Number of Vertices
  59.4741641128855, -28.1820162791654, 3.75, !- X,Y,Z Vertex 1 {m}
  59.4741641128855, -28.1820162791654, 0, !- X,Y,Z Vertex 2 {m}
  52.1694824135479, -20.8773345798279, 0, !- X,Y,Z Vertex 3 {m}
  52.1694824135479, -20.8773345798279, 3.75; !- X,Y,Z Vertex 4 {m}

OS:Surface,
  {b2244e49-3640-4bb5-9463-4d97446b2792}, !- Handle
  Surface 10,                             !- Name
  Wall,                                   !- Surface Type
  ,                                       !- Construction Name
  {9217653c-4c9a-4800-b996-e6ae13d8c604}, !- Space Name
  Outdoors,                               !- Outside Boundary Condition
  ,                                       !- Outside Boundary Condition Object
  SunExposed,                             !- Sun Exposure
  WindExposed,                            !- Wind Exposure
  ,                                       !- View Factor to Ground
  ,                                       !- Number of Vertices
  67.5251246043939, -20.131055787657, 3.75, !- X,Y,Z Vertex 1 {m}
  67.5251246043939, -20.131055787657, 0,  !- X,Y,Z Vertex 2 {m}
  59.4741641128855, -28.1820162791654, 0, !- X,Y,Z Vertex 3 {m}
  59.4741641128855, -28.1820162791654, 3.75; !- X,Y,Z Vertex 4 {m}

OS:Surface,
  {295b81fd-5263-4239-b6be-284c5261c7dc}, !- Handle
  Surface 11,                             !- Name
  Wall,                                   !- Surface Type
  ,                                       !- Construction Name
  {9217653c-4c9a-4800-b996-e6ae13d8c604}, !- Space Name
  Outdoors,                               !- Outside Boundary Condition
  ,                                       !- Outside Boundary Condition Object
  SunExposed,                             !- Sun Exposure
  WindExposed,                            !- Wind Exposure
  ,                                       !- View Factor to Ground
  ,                                       !- Number of Vertices
  75.5760850959023, -12.0800952961486, 3.75, !- X,Y,Z Vertex 1 {m}
  75.5760850959023, -12.0800952961486, 0, !- X,Y,Z Vertex 2 {m}
  67.5251246043939, -20.131055787657, 0,  !- X,Y,Z Vertex 3 {m}
  67.5251246043939, -20.131055787657, 3.75; !- X,Y,Z Vertex 4 {m}

OS:Surface,
  {b2779b6c-ae21-4b39-b2a1-229d5618e55c}, !- Handle
  Surface 12,                             !- Name
  Wall,                                   !- Surface Type
  ,                                       !- Construction Name
  {9217653c-4c9a-4800-b996-e6ae13d8c604}, !- Space Name
  Outdoors,                               !- Outside Boundary Condition
  ,                                       !- Outside Boundary Condition Object
  SunExposed,                             !- Sun Exposure
  WindExposed,                            !- Wind Exposure
  ,                                       !- View Factor to Ground
  ,                                       !- Number of Vertices
  83.6270455874107, -4.0291348046402, 3.75, !- X,Y,Z Vertex 1 {m}
  83.6270455874107, -4.0291348046402, 0,  !- X,Y,Z Vertex 2 {m}
  75.5760850959023, -12.0800952961486, 0, !- X,Y,Z Vertex 3 {m}
  75.5760850959023, -12.0800952961486, 3.75; !- X,Y,Z Vertex 4 {m}

OS:Surface,
  {d6a31038-1e5f-45b8-9ab5-8f76fa193fa3}, !- Handle
  Surface 13,                             !- Name
  Wall,                                   !- Surface Type
  ,                                       !- Construction Name
  {9217653c-4c9a-4800-b996-e6ae13d8c604}, !- Space Name
  Outdoors,                               !- Outside Boundary Condition
  ,                                       !- Outside Boundary Condition Object
  SunExposed,                             !- Sun Exposure
  WindExposed,                            !- Wind Exposure
  ,                                       !- View Factor to Ground
  ,                                       !- Number of Vertices
  91.6780060789191, 4.02182568686817, 3.75, !- X,Y,Z Vertex 1 {m}
  91.6780060789191, 4.02182568686817, 0,  !- X,Y,Z Vertex 2 {m}
  83.6270455874107, -4.0291348046402, 0,  !- X,Y,Z Vertex 3 {m}
  83.6270455874107, -4.0291348046402, 3.75; !- X,Y,Z Vertex 4 {m}

OS:Surface,
  {e48c59f3-e889-4c60-a30b-02fee2a13c65}, !- Handle
  Surface 14,                             !- Name
  Wall,                                   !- Surface Type
  ,                                       !- Construction Name
  {9217653c-4c9a-4800-b996-e6ae13d8c604}, !- Space Name
  Outdoors,                               !- Outside Boundary Condition
  ,                                       !- Outside Boundary Condition Object
  SunExposed,                             !- Sun Exposure
  WindExposed,                            !- Wind Exposure
  ,                                       !- View Factor to Ground
  ,                                       !- Number of Vertices
  98.1430277703901, -2.44319600460273, 3.75, !- X,Y,Z Vertex 1 {m}
  98.1430277703901, -2.44319600460273, 0, !- X,Y,Z Vertex 2 {m}
  91.6780060789191, 4.02182568686817, 0,  !- X,Y,Z Vertex 3 {m}
  91.6780060789191, 4.02182568686817, 3.75; !- X,Y,Z Vertex 4 {m}

OS:Surface,
  {52bf9459-40ca-4db5-b5d1-63bc8d0c0c68}, !- Handle
  Surface 15,                             !- Name
  Wall,                                   !- Surface Type
  ,                                       !- Construction Name
  {9217653c-4c9a-4800-b996-e6ae13d8c604}, !- Space Name
  Outdoors,                               !- Outside Boundary Condition
  ,                                       !- Outside Boundary Condition Object
  SunExposed,                             !- Sun Exposure
  WindExposed,                            !- Wind Exposure
  ,                                       !- View Factor to Ground
  ,                                       !- Number of Vertices
  104.608049461861, -8.90821769607368, 3.75, !- X,Y,Z Vertex 1 {m}
  104.608049461861, -8.90821769607368, 0, !- X,Y,Z Vertex 2 {m}
  98.1430277703901, -2.44319600460273, 0, !- X,Y,Z Vertex 3 {m}
  98.1430277703901, -2.44319600460273, 3.75; !- X,Y,Z Vertex 4 {m}

OS:Surface,
  {ace8cfd6-a188-4fa5-8552-36a86d2389b0}, !- Handle
  Surface 16,                             !- Name
  Wall,                                   !- Surface Type
  ,                                       !- Construction Name
  {9217653c-4c9a-4800-b996-e6ae13d8c604}, !- Space Name
  Outdoors,                               !- Outside Boundary Condition
  ,                                       !- Outside Boundary Condition Object
  SunExposed,                             !- Sun Exposure
  WindExposed,                            !- Wind Exposure
  ,                                       !- View Factor to Ground
  ,                                       !- Number of Vertices
  96.6330634813788, -16.883203676556, 3.75, !- X,Y,Z Vertex 1 {m}
  96.6330634813788, -16.883203676556, 0,  !- X,Y,Z Vertex 2 {m}
  104.608049461861, -8.90821769607368, 0, !- X,Y,Z Vertex 3 {m}
  104.608049461861, -8.90821769607368, 3.75; !- X,Y,Z Vertex 4 {m}

OS:Surface,
  {e8ea5748-9067-4510-85fd-8213232ea284}, !- Handle
  Surface 17,                             !- Name
  Wall,                                   !- Surface Type
  ,                                       !- Construction Name
  {9217653c-4c9a-4800-b996-e6ae13d8c604}, !- Space Name
  Outdoors,                               !- Outside Boundary Condition
  ,                                       !- Outside Boundary Condition Object
  SunExposed,                             !- Sun Exposure
  WindExposed,                            !- Wind Exposure
  ,                                       !- View Factor to Ground
  ,                                       !- Number of Vertices
  88.6580775008965, -24.8581896570382, 3.75, !- X,Y,Z Vertex 1 {m}
  88.6580775008965, -24.8581896570382, 0, !- X,Y,Z Vertex 2 {m}
  96.6330634813788, -16.883203676556, 0,  !- X,Y,Z Vertex 3 {m}
  96.6330634813788, -16.883203676556, 3.75; !- X,Y,Z Vertex 4 {m}

OS:Surface,
  {09482210-0b40-49fc-91d2-30dd9e906c29}, !- Handle
  Surface 18,                             !- Name
  Wall,                                   !- Surface Type
  ,                                       !- Construction Name
  {9217653c-4c9a-4800-b996-e6ae13d8c604}, !- Space Name
  Outdoors,                               !- Outside Boundary Condition
  ,                                       !- Outside Boundary Condition Object
  SunExposed,                             !- Sun Exposure
  WindExposed,                            !- Wind Exposure
  ,                                       !- View Factor to Ground
  ,                                       !- Number of Vertices
  80.6830915204142, -32.8331756375205, 3.75, !- X,Y,Z Vertex 1 {m}
  80.6830915204142, -32.8331756375205, 0, !- X,Y,Z Vertex 2 {m}
  88.6580775008965, -24.8581896570382, 0, !- X,Y,Z Vertex 3 {m}
  88.6580775008965, -24.8581896570382, 3.75; !- X,Y,Z Vertex 4 {m}

OS:Surface,
  {517e5a4e-0556-4aec-ba9d-05a150439c7d}, !- Handle
  Surface 19,                             !- Name
  Wall,                                   !- Surface Type
  ,                                       !- Construction Name
  {9217653c-4c9a-4800-b996-e6ae13d8c604}, !- Space Name
  Outdoors,                               !- Outside Boundary Condition
  ,                                       !- Outside Boundary Condition Object
  SunExposed,                             !- Sun Exposure
  WindExposed,                            !- Wind Exposure
  ,                                       !- View Factor to Ground
  ,                                       !- Number of Vertices
  72.7081055399319, -40.8081616180028, 3.75, !- X,Y,Z Vertex 1 {m}
  72.7081055399319, -40.8081616180028, 0, !- X,Y,Z Vertex 2 {m}
  80.6830915204142, -32.8331756375205, 0, !- X,Y,Z Vertex 3 {m}
  80.6830915204142, -32.8331756375205, 3.75; !- X,Y,Z Vertex 4 {m}

OS:Surface,
  {3564b5dc-6c22-411a-ba48-4f62d1221a38}, !- Handle
  Surface 20,                             !- Name
  Wall,                                   !- Surface Type
  ,                                       !- Construction Name
  {9217653c-4c9a-4800-b996-e6ae13d8c604}, !- Space Name
  Outdoors,                               !- Outside Boundary Condition
  ,                                       !- Outside Boundary Condition Object
  SunExposed,                             !- Sun Exposure
  WindExposed,                            !- Wind Exposure
  ,                                       !- View Factor to Ground
  ,                                       !- Number of Vertices
  64.7331195594496, -48.783147598485, 3.75, !- X,Y,Z Vertex 1 {m}
  64.7331195594496, -48.783147598485, 0,  !- X,Y,Z Vertex 2 {m}
  72.7081055399319, -40.8081616180028, 0, !- X,Y,Z Vertex 3 {m}
  72.7081055399319, -40.8081616180028, 3.75; !- X,Y,Z Vertex 4 {m}

OS:Surface,
  {e0414312-c973-4650-8622-42875171a167}, !- Handle
  Surface 21,                             !- Name
  Wall,                                   !- Surface Type
  ,                                       !- Construction Name
  {9217653c-4c9a-4800-b996-e6ae13d8c604}, !- Space Name
  Outdoors,                               !- Outside Boundary Condition
  ,                                       !- Outside Boundary Condition Object
  SunExposed,                             !- Sun Exposure
  WindExposed,                            !- Wind Exposure
  ,                                       !- View Factor to Ground
  ,                                       !- Number of Vertices
  56.7581335789674, -56.7581335789673, 3.75, !- X,Y,Z Vertex 1 {m}
  56.7581335789674, -56.7581335789673, 0, !- X,Y,Z Vertex 2 {m}
  64.7331195594496, -48.783147598485, 0,  !- X,Y,Z Vertex 3 {m}
  64.7331195594496, -48.783147598485, 3.75; !- X,Y,Z Vertex 4 {m}

OS:Surface,
  {7234dd62-cfa7-41cc-a316-b82c70e83140}, !- Handle
  Surface 22,                             !- Name
  Wall,                                   !- Surface Type
  ,                                       !- Construction Name
  {9217653c-4c9a-4800-b996-e6ae13d8c604}, !- Space Name
  Outdoors,                               !- Outside Boundary Condition
  ,                                       !- Outside Boundary Condition Object
  SunExposed,                             !- Sun Exposure
  WindExposed,                            !- Wind Exposure
  ,                                       !- View Factor to Ground
  ,                                       !- Number of Vertices
  49.6633668815964, -49.6633668815964, 3.75, !- X,Y,Z Vertex 1 {m}
  49.6633668815964, -49.6633668815964, 0, !- X,Y,Z Vertex 2 {m}
  56.7581335789674, -56.7581335789673, 0, !- X,Y,Z Vertex 3 {m}
  56.7581335789674, -56.7581335789673, 3.75; !- X,Y,Z Vertex 4 {m}

OS:Surface,
  {2852efd9-7de4-4bbf-ad55-b671f4dc52c0}, !- Handle
  Surface 23,                             !- Name
  Wall,                                   !- Surface Type
  ,                                       !- Construction Name
  {9217653c-4c9a-4800-b996-e6ae13d8c604}, !- Space Name
  Outdoors,                               !- Outside Boundary Condition
  ,                                       !- Outside Boundary Condition Object
  SunExposed,                             !- Sun Exposure
  WindExposed,                            !- Wind Exposure
  ,                                       !- View Factor to Ground
  ,                                       !- Number of Vertices
  42.5686001842255, -42.5686001842255, 3.75, !- X,Y,Z Vertex 1 {m}
  42.5686001842255, -42.5686001842255, 0, !- X,Y,Z Vertex 2 {m}
  49.6633668815964, -49.6633668815964, 0, !- X,Y,Z Vertex 3 {m}
  49.6633668815964, -49.6633668815964, 3.75; !- X,Y,Z Vertex 4 {m}

OS:Surface,
  {6971066e-e6e9-463a-b10e-1f18c813492e}, !- Handle
  Surface 24,                             !- Name
  Wall,                                   !- Surface Type
  ,                                       !- Construction Name
  {9217653c-4c9a-4800-b996-e6ae13d8c604}, !- Space Name
  Outdoors,                               !- Outside Boundary Condition
  ,                                       !- Outside Boundary Condition Object
  SunExposed,                             !- Sun Exposure
  WindExposed,                            !- Wind Exposure
  ,                                       !- View Factor to Ground
  ,                                       !- Number of Vertices
  35.4738334868546, -35.4738334868546, 3.75, !- X,Y,Z Vertex 1 {m}
  35.4738334868546, -35.4738334868546, 0, !- X,Y,Z Vertex 2 {m}
  42.5686001842255, -42.5686001842255, 0, !- X,Y,Z Vertex 3 {m}
  42.5686001842255, -42.5686001842255, 3.75; !- X,Y,Z Vertex 4 {m}

OS:Surface,
  {a542fadf-5f91-4154-9790-d4292c4621c1}, !- Handle
  Surface 25,                             !- Name
  Wall,                                   !- Surface Type
  ,                                       !- Construction Name
  {9217653c-4c9a-4800-b996-e6ae13d8c604}, !- Space Name
  Outdoors,                               !- Outside Boundary Condition
  ,                                       !- Outside Boundary Condition Object
  SunExposed,                             !- Sun Exposure
  WindExposed,                            !- Wind Exposure
  ,                                       !- View Factor to Ground
  ,                                       !- Number of Vertices
  28.3790667894837, -28.3790667894836, 3.75, !- X,Y,Z Vertex 1 {m}
  28.3790667894837, -28.3790667894836, 0, !- X,Y,Z Vertex 2 {m}
  35.4738334868546, -35.4738334868546, 0, !- X,Y,Z Vertex 3 {m}
  35.4738334868546, -35.4738334868546, 3.75; !- X,Y,Z Vertex 4 {m}

OS:Surface,
  {d0e57560-fd11-46ce-abad-0de53b806ee2}, !- Handle
  Surface 26,                             !- Name
  Wall,                                   !- Surface Type
  ,                                       !- Construction Name
  {9217653c-4c9a-4800-b996-e6ae13d8c604}, !- Space Name
  Outdoors,                               !- Outside Boundary Condition
  ,                                       !- Outside Boundary Condition Object
  SunExposed,                             !- Sun Exposure
  WindExposed,                            !- Wind Exposure
  ,                                       !- View Factor to Ground
  ,                                       !- Number of Vertices
  21.2843000921128, -21.2843000921128, 3.75, !- X,Y,Z Vertex 1 {m}
  21.2843000921128, -21.2843000921128, 0, !- X,Y,Z Vertex 2 {m}
  28.3790667894837, -28.3790667894836, 0, !- X,Y,Z Vertex 3 {m}
  28.3790667894837, -28.3790667894836, 3.75; !- X,Y,Z Vertex 4 {m}

OS:Surface,
  {92426490-d160-4ab6-bafd-9340ccb4681c}, !- Handle
  Surface 27,                             !- Name
  Wall,                                   !- Surface Type
  ,                                       !- Construction Name
  {9217653c-4c9a-4800-b996-e6ae13d8c604}, !- Space Name
  Outdoors,                               !- Outside Boundary Condition
  ,                                       !- Outside Boundary Condition Object
  SunExposed,                             !- Sun Exposure
  WindExposed,                            !- Wind Exposure
  ,                                       !- View Factor to Ground
  ,                                       !- Number of Vertices
  14.1895333947419, -14.1895333947418, 3.75, !- X,Y,Z Vertex 1 {m}
  14.1895333947419, -14.1895333947418, 0, !- X,Y,Z Vertex 2 {m}
  21.2843000921128, -21.2843000921128, 0, !- X,Y,Z Vertex 3 {m}
  21.2843000921128, -21.2843000921128, 3.75; !- X,Y,Z Vertex 4 {m}

OS:Surface,
  {a5a25d94-dc2e-42ee-adf0-0dcf22cb0964}, !- Handle
  Surface 28,                             !- Name
  Wall,                                   !- Surface Type
  ,                                       !- Construction Name
  {9217653c-4c9a-4800-b996-e6ae13d8c604}, !- Space Name
  Outdoors,                               !- Outside Boundary Condition
  ,                                       !- Outside Boundary Condition Object
  SunExposed,                             !- Sun Exposure
  WindExposed,                            !- Wind Exposure
  ,                                       !- View Factor to Ground
  ,                                       !- Number of Vertices
  7.09476669737089, -7.09476669737092, 3.75, !- X,Y,Z Vertex 1 {m}
  7.09476669737089, -7.09476669737092, 0, !- X,Y,Z Vertex 2 {m}
  14.1895333947419, -14.1895333947418, 0, !- X,Y,Z Vertex 3 {m}
  14.1895333947419, -14.1895333947418, 3.75; !- X,Y,Z Vertex 4 {m}

OS:Surface,
  {a4709457-9a5b-490a-a35e-1e7523679c91}, !- Handle
  Surface 29,                             !- Name
  Wall,                                   !- Surface Type
  ,                                       !- Construction Name
  {9217653c-4c9a-4800-b996-e6ae13d8c604}, !- Space Name
  Outdoors,                               !- Outside Boundary Condition
  ,                                       !- Outside Boundary Condition Object