
OS:Version,
  {e4cc9753-831c-4e0c-9cf3-60bf2f947319}, !- Handle
  1.6.0;                                  !- Version Identifier

OS:BuildingStory,
  {f8a51443-84f8-4dec-b578-8164dabca04b}, !- Handle
  Story 1,                                !- Name
  0,                                      !- Nominal Z Coordinate {m}
  3.75,                                   !- Nominal Floor to Floor Height {m}
  ,                                       !- Default Construction Set Name
  ,                                       !- Default Schedule Set Name
  {610ea164-e8bf-4dfc-9fa2-6de66d114d01}; !- Group Rendering Name

OS:Space,
  {7e70d469-6eff-466d-93e3-0fe90e13b018}, !- Handle
  0 Core Space,                           !- Name
  ,                                       !- Space Type Name
  ,                                       !- Default Construction Set Name
  ,                                       !- Default Schedule Set Name
  -0,                                     !- Direction of Relative North {deg}
  -47.18,                                 !- X Origin {m}
  -30.68,                                 !- Y Origin {m}
  0,                                      !- Z Origin {m}
  {f8a51443-84f8-4dec-b578-8164dabca04b}, !- Building Story Name
  {df81cfc0-9615-4014-9b7a-72e746339231}; !- Thermal Zone Name

OS:Surface,
  {0ae71589-1104-4243-adab-6da05ad36e38}, !- Handle
  0:1:0,                                  !- Name
  Floor,                                  !- Surface Type
  ,                                       !- Construction Name
  {7e70d469-6eff-466d-93e3-0fe90e13b018}, !- Space Name
  Ground,                                 !- Outside Boundary Condition
  ,                                       !- Outside Boundary Condition Object
  NoSun,                                  !- Sun Exposure
  NoWind,                                 !- Wind Exposure
  ,                                       !- View Factor to Ground
  ,                                       !- Number of Vertices
  79.22, 68.69, 0,                        !- X,Y,Z Vertex 1 {m}
  81.77, 1.63, 0,                         !- X,Y,Z Vertex 2 {m}
  0, 0, 0,                                !- X,Y,Z Vertex 3 {m}
  0, 22.31, 0,                            !- X,Y,Z Vertex 4 {m}
  60.81, 22.77, 0,                        !- X,Y,Z Vertex 5 {m}
  61.28, 68.69, 0;                        !- X,Y,Z Vertex 6 {m}

OS:Surface,
  {89d10978-7547-4e3d-87e7-30b5dfc00267}, !- Handle
  0:2:0,                                  !- Name
  Wall,                                   !- Surface Type
  ,                                       !- Construction Name
  {7e70d469-6eff-466d-93e3-0fe90e13b018}, !- Space Name
  Outdoors,                               !- Outside Boundary Condition
  ,                                       !- Outside Boundary Condition Object
  SunExposed,                             !- Sun Exposure
  WindExposed,                            !- Wind Exposure
  ,                                       !- View Factor to Ground
  ,                                       !- Number of Vertices
  0, 11.155, 3.75,                        !- X,Y,Z Vertex 1 {m}
  0, 11.155, 0,                           !- X,Y,Z Vertex 2 {m}
  0, 0, 0,                                !- X,Y,Z Vertex 3 {m}
  0, 0, 3.75;                             !- X,Y,Z Vertex 4 {m}

OS:Surface,
  {eb47a627-33b6-4ff7-9526-58a3cfeee7e4}, !- Handle
  0:3:0,                                  !- Name
  Wall,                                   !- Surface Type
  ,                                       !- Construction Name
  {7e70d469-6eff-466d-93e3-0fe90e13b018}, !- Space Name
  Outdoors,                               !- Outside Boundary Condition
  ,                                       !- Outside Boundary Condition Object
  SunExposed,                             !- Sun Exposure
  WindExposed,                            !- Wind Exposure
  ,                                       !- View Factor to Ground
  ,                                       !- Number of Vertices
  0, 22.31, 3.75,                         !- X,Y,Z Vertex 1 {m}
  0, 22.31, 0,                            !- X,Y,Z Vertex 2 {m}
  0, 11.155, 0,                           !- X,Y,Z Vertex 3 {m}
  0, 11.155, 3.75;                        !- X,Y,Z Vertex 4 {m}

OS:Surface,
  {d6cf9f98-23a6-491f-836a-e9d0e47f0f62}, !- Handle
  0:4:0,                                  !- Name
  Wall,                                   !- Surface Type
  ,                                       !- Construction Name
  {7e70d469-6eff-466d-93e3-0fe90e13b018}, !- Space Name
  Outdoors,                               !- Outside Boundary Condition
  ,                                       !- Outside Boundary Condition Object
  SunExposed,                             !- Sun Exposure
  WindExposed,                            !- Wind Exposure
  ,                                       !- View Factor to Ground
  ,                                       !- Number of Vertices
  10.135, 22.3866666666667, 3.75,         !- X,Y,Z Vertex 1 {m}
  10.135, 22.3866666666667, 0,            !- X,Y,Z Vertex 2 {m}
  2.18431016093284e-17, 22.31, 0,         !- X,Y,Z Vertex 3 {m}
  2.18431016093284e-17, 22.31, 3.75;      !- X,Y,Z Vertex 4 {m}

OS:Surface,
  {5a6232f3-2ea0-444d-a399-54a367327d28}, !- Handle
  0:5:0,                                  !- Name
  Wall,                                   !- Surface Type
  ,                                       !- Construction Name
  {7e70d469-6eff-466d-93e3-0fe90e13b018}, !- Space Name
  Outdoors,                               !- Outside Boundary Condition
  ,                                       !- Outside Boundary Condition Object
  SunExposed,                             !- Sun Exposure
  WindExposed,                            !- Wind Exposure
  ,                                       !- View Factor to Ground
  ,                                       !- Number of Vertices
  20.27, 22.4633333333333, 3.75,          !- X,Y,Z Vertex 1 {m}
  20.27, 22.4633333333333, 0,             !- X,Y,Z Vertex 2 {m}
  10.135, 22.3866666666667, 0,            !- X,Y,Z Vertex 3 {m}
  10.135, 22.3866666666667, 3.75;         !- X,Y,Z Vertex 4 {m}

OS:Surface,
  {5ef78644-e722-4533-9653-de0babe9f450}, !- Handle
  0:6:0,                                  !- Name
  Wall,                                   !- Surface Type
  ,                                       !- Construction Name
  {7e70d469-6eff-466d-93e3-0fe90e13b018}, !- Space Name
  Outdoors,                               !- Outside Boundary Condition
  ,                                       !- Outside Boundary Condition Object
  SunExposed,                             !- Sun Exposure
  WindExposed,                            !- Wind Exposure
  ,                                       !- View Factor to Ground
  ,                                       !- Number of Vertices
  30.405, 22.54, 3.75,                    !- X,Y,Z Vertex 1 {m}
  30.405, 22.54, 0,                       !- X,Y,Z Vertex 2 {m}
  20.27, 22.4633333333333, 0,             !- X,Y,Z Vertex 3 {m}
  20.27, 22.4633333333333, 3.75;          !- X,Y,Z Vertex 4 {m}

OS:Surface,
  {7ea97b83-c2bd-409b-aab9-2dbb7ca696b0}, !- Handle
  0:7:0,                                  !- Name
  Wall,                                   !- Surface Type
  ,                                       !- Construction Name
  {7e70d469-6eff-466d-93e3-0fe90e13b018}, !- Space Name
  Outdoors,                               !- Outside Boundary Condition
  ,                                       !- Outside Boundary Condition Object
  SunExposed,                             !- Sun Exposure
  WindExposed,                            !- Wind Exposure
  ,                                       !- View Factor to Ground
  ,                                       !- Number of Vertices
  40.54, 22.6166666666667, 3.75,          !- X,Y,Z Vertex 1 {m}
  40.54, 22.6166666666667, 0,             !- X,Y,Z Vertex 2 {m}
  30.405, 22.54, 0,                       !- X,Y,Z Vertex 3 {m}
  30.405, 22.54, 3.75;                    !- X,Y,Z Vertex 4 {m}

OS:Surface,
  {203868dd-5a28-4e45-894e-a4a11de1f3bb}, !- Handle
  0:8:0,                                  !- Name
  Wall,                                   !- Surface Type
  ,                                       !- Construction Name
  {7e70d469-6eff-466d-93e3-0fe90e13b018}, !- Space Name
  Outdoors,                               !- Outside Boundary Condition
  ,                                       !- Outside Boundary Condition Object
  SunExposed,                             !- Sun Exposure
  WindExposed,                            !- Wind Exposure
  ,                                       !- View Factor to Ground
  ,                                       !- Number of Vertices
  50.675, 22.6933333333333, 3.75,         !- X,Y,Z Vertex 1 {m}
  50.675, 22.6933333333333, 0,            !- X,Y,Z Vertex 2 {m}
  40.54, 22.6166666666667, 0,             !- X,Y,Z Vertex 3 {m}
  40.54, 22.6166666666667, 3.75;          !- X,Y,Z Vertex 4 {m}

OS:Surface,
  {e825490d-3cd7-4406-9ef9-d0f17544fd4c}, !- Handle
  0:9:0,                                  !- Name
  Wall,                                   !- Surface Type
  ,                                       !- Construction Name
  {7e70d469-6eff-466d-93e3-0fe90e13b018}, !- Space Name
  Outdoors,                               !- Outside Boundary Condition
  ,                                       !- Outside Boundary Condition Object
  SunExposed,                             !- Sun Exposure
  WindExposed,                            !- Wind Exposure
  ,                                       !- View Factor to Ground
  ,                                       !- Number of Vertices
  60.81, 22.77, 3.75,                     !- X,Y,Z Vertex 1 {m}
  60.81, 22.77, 0,                        !- X,Y,Z Vertex 2 {m}
  50.675, 22.6933333333333, 0,            !- X,Y,Z Vertex 3 {m}
  50.675, 22.6933333333333, 3.75;         !- X,Y,Z Vertex 4 {m}

OS:Surface,
  {db6c9307-6977-4544-9f38-99bd2b7b57eb}, !- Handle
  0:10:0,                                 !- Name
  Wall,                                   !- Surface Type
  ,                                       !- Construction Name
  {7e70d469-6eff-466d-93e3-0fe90e13b018}, !- Space Name
  Outdoors,                               !- Outside Boundary Condition
  ,                                       !- Outside Boundary Condition Object
  SunExposed,                             !- Sun Exposure
  WindExposed,                            !- Wind Exposure
  ,                                       !- View Factor to Ground
  ,                                       !- Number of Vertices
  60.9275, 34.25, 3.75,                   !- X,Y,Z Vertex 1 {m}
  60.9275, 34.25, 0,                      !- X,Y,Z Vertex 2 {m}
  60.81, 22.77, 0,                        !- X,Y,Z Vertex 3 {m}
  60.81, 22.77, 3.75;                     !- X,Y,Z Vertex 4 {m}

OS:Surface,
  {324736c5-f386-43fa-89e0-29942bff4d15}, !- Handle
  0:11:0,                                 !- Name
  Wall,                                   !- Surface Type
  ,                                       !- Construction Name
  {7e70d469-6eff-466d-93e3-0fe90e13b018}, !- Space Name
  Outdoors,                               !- Outside Boundary Condition
  ,                                       !- Outside Boundary Condition Object
  SunExposed,                             !- Sun Exposure
  WindExposed,                            !- Wind Exposure
  ,                                       !- View Factor to Ground
  ,                                       !- Number of Vertices
  61.045, 45.73, 3.75,                    !- X,Y,Z Vertex 1 {m}
  61.045, 45.73, 0,                       !- X,Y,Z Vertex 2 {m}
  60.9275, 34.25, 0,                      !- X,Y,Z Vertex 3 {m}
  60.9275, 34.25, 3.75;                   !- X,Y,Z Vertex 4 {m}

OS:Surface,
  {e08c4a01-9e53-4d0a-ac94-235522e9db4f}, !- Handle
  0:12:0,                                 !- Name
  Wall,                                   !- Surface Type
  ,                                       !- Construction Name
  {7e70d469-6eff-466d-93e3-0fe90e13b018}, !- Space Name
  Outdoors,                               !- Outside Boundary Condition
  ,                                       !- Outside Boundary Condition Object
  SunExposed,                             !- Sun Exposure
  WindExposed,                            !- Wind Exposure
  ,                                       !- View Factor to Ground
  ,                                       !- Number of Vertices
  61.1625, 57.21, 3.75,                   !- X,Y,Z Vertex 1 {m}
  61.1625, 57.21, 0,                      !- X,Y,Z Vertex 2 {m}
  61.045, 45.73, 0,                       !- X,Y,Z Vertex 3 {m}
  61.045, 45.73, 3.75;                    !- X,Y,Z Vertex 4 {m}

OS:Surface,
  {6c3d3857-9d2c-4e61-bd21-24c86b3d4041}, !- Handle
  0:13:0,                                 !- Name
  Wall,                                   !- Surface Type
  ,                                       !- Construction Name
  {7e70d469-6eff-466d-93e3-0fe90e13b018}, !- Space Name
  Outdoors,                               !- Outside Boundary Condition
  ,                                       !- Outside Boundary Condition Object
  SunExposed,                             !- Sun Exposure
  WindExposed,                            !- Wind Exposure
  ,                                       !- View Factor to Ground
  ,                                       !- Number of Vertices
  61.28, 68.69, 3.75,                     !- X,Y,Z Vertex 1 {m}
  61.28, 68.69, 0,                        !- X,Y,Z Vertex 2 {m}
  61.1625, 57.21, 0,                      !- X,Y,Z Vertex 3 {m}
  61.1625, 57.21, 3.75;                   !- X,Y,Z Vertex 4 {m}

OS:Surface,
  {1c299bd8-055a-4720-b2d4-6cd6996249bb}, !- Handle
  0:14:0,                                 !- Name
  Wall,                                   !- Surface Type
  ,                                       !- Construction Name
  {7e70d469-6eff-466d-93e3-0fe90e13b018}, !- Space Name
  Outdoors,                               !- Outside Boundary Condition
  ,                                       !- Outside Boundary Condition Object
  SunExposed,                             !- Sun Exposure
  WindExposed,                            !- Wind Exposure
  ,                                       !- View Factor to Ground
  ,                                       !- Number of Vertices
  70.25, 68.69, 3.75,                     !- X,Y,Z Vertex 1 {m}
  70.25, 68.69, 0,                        !- X,Y,Z Vertex 2 {m}
  61.28, 68.69, 0,                        !- X,Y,Z Vertex 3 {m}
  61.28, 68.69, 3.75;                     !- X,Y,Z Vertex 4 {m}

OS:Surface,
  {e9f2e0b1-b32c-478a-9832-cddead260b19}, !- Handle
  0:15:0,                                 !- Name
  Wall,                                   !- Surface Type
  ,                                       !- Construction Name
  {7e70d469-6eff-466d-93e3-0fe90e13b018}, !- Space Name
  Outdoors,                               !- Outside Boundary Condition
  ,                                       !- Outside Boundary Condition Object
  SunExposed,                             !- Sun Exposure
  WindExposed,                            !- Wind Exposure
  ,                                       !- View Factor to Ground
  ,                                       !- Number of Vertices
  79.22, 68.69, 3.75,                     !- X,Y,Z Vertex 1 {m}
  79.22, 68.69, 0,                        !- X,Y,Z Vertex 2 {m}
  70.25, 68.69, 0,                        !- X,Y,Z Vertex 3 {m}
  70.25, 68.69, 3.75;                     !- X,Y,Z Vertex 4 {m}

OS:Surface,
  {9ca0474a-a76d-4bc9-bcb8-728f24c08286}, !- Handle
  0:16:0,                                 !- Name
  Wall,                                   !- Surface Type
  ,                                       !- Construction Name
  {7e70d469-6eff-466d-93e3-0fe90e13b018}, !- Space Name
  Outdoors,                               !- Outside Boundary Condition
  ,                                       !- Outside Boundary Condition Object
  SunExposed,                             !- Sun Exposure
  WindExposed,                            !- Wind Exposure
  ,                                       !- View Factor to Ground
  ,                                       !- Number of Vertices
  79.645, 57.5133333333333, 3.75,         !- X,Y,Z Vertex 1 {m}
  79.645, 57.5133333333333, 0,            !- X,Y,Z Vertex 2 {m}
  79.22, 68.69, 0,                        !- X,Y,Z Vertex 3 {m}
  79.22, 68.69, 3.75;                     !- X,Y,Z Vertex 4 {m}

OS:Surface,
  {f9e92849-8969-47ce-978e-c11a6099316b}, !- Handle
  0:17:0,                                 !- Name
  Wall,                                   !- Surface Type
  ,                                       !- Construction Name
  {7e70d469-6eff-466d-93e3-0fe90e13b018}, !- Space Name
  Outdoors,                               !- Outside Boundary Condition
  ,                                       !- Outside Boundary Condition Object
  SunExposed,                             !- Sun Exposure
  WindExposed,                            !- Wind Exposure
  ,                                       !- View Factor to Ground
  ,                                       !- Number of Vertices
  80.07, 46.3366666666667, 3.75,          !- X,Y,Z Vertex 1 {m}
  80.07, 46.3366666666667, 0,             !- X,Y,Z Vertex 2 {m}
  79.645, 57.5133333333333, 0,            !- X,Y,Z Vertex 3 {m}
  79.645, 57.5133333333333, 3.75;         !- X,Y,Z Vertex 4 {m}

OS:Surface,
  {73374918-05d5-4d17-bb20-4b75267d2494}, !- Handle
  0:18:0,                                 !- Name
  Wall,                                   !- Surface Type
  ,                                       !- Construction Name
  {7e70d469-6eff-466d-93e3-0fe90e13b018}, !- Space Name
  Outdoors,                               !- Outside Boundary Condition
  ,                                       !- Outside Boundary Condition Object
  SunExposed,                             !- Sun Exposure
  WindExposed,                            !- Wind Exposure
  ,                                       !- View Factor to Ground
  ,                                       !- Number of Vertices
  80.495, 35.16, 3.75,                    !- X,Y,Z Vertex 1 {m}
  80.495, 35.16, 0,                       !- X,Y,Z Vertex 2 {m}
  80.07, 46.3366666666667, 0,             !- X,Y,Z Vertex 3 {m}
  80.07, 46.3366666666667, 3.75;          !- X,Y,Z Vertex 4 {m}

OS:Surface,
  {d2863fd9-ad0d-4952-b86e-edd18d6130d2}, !- Handle
  0:19:0,                                 !- Name
  Wall,                                   !- Surface Type
  ,                                       !- Construction Name
  {7e70d469-6eff-466d-93e3-0fe90e13b018}, !- Space Name
  Outdoors,                               !- Outside Boundary Condition
  ,                                       !- Outside Boundary Condition Object
  SunExposed,                             !- Sun Exposure
  WindExposed,                            !- Wind Exposure
  ,                                       !- View Factor to Ground
  ,                                       !- Number of Vertices
  80.92, 23.9833333333333, 3.75,          !- X,Y,Z Vertex 1 {m}
  80.92, 23.9833333333333, 0,             !- X,Y,Z Vertex 2 {m}
  80.495, 35.16, 0,                       !- X,Y,Z Vertex 3 {m}
  80.495, 35.16, 3.75;                    !- X,Y,Z Vertex 4 {m}

OS:Surface,
  {c9c5b37d-76f0-47b9-83cd-4148deca0760}, !- Handle
  0:20:0,                                 !- Name
  Wall,                                   !- Surface Type
  ,                                       !- Construction Name
  {7e70d469-6eff-466d-93e3-0fe90e13b018}, !- Space Name
  Outdoors,                               !- Outside Boundary Condition
  ,                                       !- Outside Boundary Condition Object
  SunExposed,                             !- Sun Exposure
  WindExposed,                            !- Wind Exposure
  ,                                       !- View Factor to Ground
  ,                                       !- Number of Vertices
  81.345, 12.8066666666667, 3.75,         !- X,Y,Z Vertex 1 {m}
  81.345, 12.8066666666667, 0,            !- X,Y,Z Vertex 2 {m}
  80.92, 23.9833333333333, 0,             !- X,Y,Z Vertex 3 {m}
  80.92, 23.9833333333333, 3.75;          !- X,Y,Z Vertex 4 {m}

OS:Surface,
  {eb1da916-10fa-4e84-9e11-c4ff5ab23f40}, !- Handle
  0:21:0,                                 !- Name
  Wall,                                   !- Surface Type
  ,                                       !- Construction Name
  {7e70d469-6eff-466d-93e3-0fe90e13b018}, !- Space Name
  Outdoors,                               !- Outside Boundary Condition
  ,                                       !- Outside Boundary Condition Object
  SunExposed,                             !- Sun Exposure
  WindExposed,                            !- Wind Exposure
  ,                                       !- View Factor to Ground
  ,                                       !- Number of Vertices
  81.77, 1.63, 3.75,                      !- X,Y,Z Vertex 1 {m}
  81.77, 1.63, 0,                         !- X,Y,Z Vertex 2 {m}
  81.345, 12.8066666666667, 0,            !- X,Y,Z Vertex 3 {m}
  81.345, 12.8066666666667, 3.75;         !- X,Y,Z Vertex 4 {m}

OS:Surface,
  {887457d6-637f-4dcf-a098-f89d6c00bb94}, !- Handle
  0:22:0,                                 !- Name
  Wall,                                   !- Surface Type
  ,                                       !- Construction Name
  {7e70d469-6eff-466d-93e3-0fe90e13b018}, !- Space Name
  Outdoors,                               !- Outside Boundary Condition
  ,                                       !- Outside Boundary Condition Object
  SunExposed,                             !- Sun Exposure
  WindExposed,                            !- Wind Exposure
  ,                                       !- View Factor to Ground
  ,                                       !- Number of Vertices
  71.54875, 1.42625, 3.75,                !- X,Y,Z Vertex 1 {m}
  71.54875, 1.42625, 0,                   !- X,Y,Z Vertex 2 {m}
  81.77, 1.63, 0,                         !- X,Y,Z Vertex 3 {m}
  81.77, 1.63, 3.75;                      !- X,Y,Z Vertex 4 {m}

OS:Surface,
  {e646f2ff-2470-49c9-8a7a-5cfda875f93d}, !- Handle
  0:23:0,                                 !- Name
  Wall,                                   !- Surface Type
  ,                                       !- Construction Name
  {7e70d469-6eff-466d-93e3-0fe90e13b018}, !- Space Name
  Outdoors,                               !- Outside Boundary Condition
  ,                                       !- Outside Boundary Condition Object
  SunExposed,                             !- Sun Exposure
  WindExposed,                            !- Wind Exposure
  ,                                       !- View Factor to Ground
  ,                                       !- Number of Vertices
  61.3275, 1.2225, 3.75,                  !- X,Y,Z Vertex 1 {m}
  61.3275, 1.2225, 0,                     !- X,Y,Z Vertex 2 {m}
  71.54875, 1.42625, 0,                   !- X,Y,Z Vertex 3 {m}
  71.54875, 1.42625, 3.75;                !- X,Y,Z Vertex 4 {m}

OS:Surface,
  {26f34b56-7e77-4345-81cc-d0d52f2e05b3}, !- Handle
  0:24:0,                                 !- Name
  Wall,                                   !- Surface Type
  ,                                       !- Construction Name
  {7e70d469-6eff-466d-93e3-0fe90e13b018}, !- Space Name
  Outdoors,                               !- Outside Boundary Condition
  ,                                       !- Outside Boundary Condition Object
  SunExposed,                             !- Sun Exposure
  WindExposed,                            !- Wind Exposure
  ,                                       !- View Factor to Ground
  ,                                       !- Number of Vertices
  51.10625, 1.01875, 3.75,                !- X,Y,Z Vertex 1 {m}
  51.10625, 1.01875, 0,                   !- X,Y,Z Vertex 2 {m}
  61.3275, 1.2225, 0,                     !- X,Y,Z Vertex 3 {m}
  61.3275, 1.2225, 3.75;                  !- X,Y,Z Vertex 4 {m}

OS:Surface,
  {ca6d4ea8-e461-4f54-a8ba-e73ab5b82fa0}, !- Handle
  0:25:0,                                 !- Name
  Wall,                                   !- Surface Type
  ,                                       !- Construction Name
  {7e70d469-6eff-466d-93e3-0fe90e13b018}, !- Space Name
  Outdoors,                               !- Outside Boundary Condition
  ,                                       !- Outside Boundary Condition Object
  SunExposed,                             !- Sun Exposure
  WindExposed,                            !- Wind Exposure
  ,                                       !- View Factor to Ground
  ,                                       !- Number of Vertices
  40.885, 0.815000000000001, 3.75,        !- X,Y,Z Vertex 1 {m}
  40.885, 0.815000000000001, 0,           !- X,Y,Z Vertex 2 {m}
  51.10625, 1.01875, 0,                   !- X,Y,Z Vertex 3 {m}
  51.10625, 1.01875, 3.75;                !- X,Y,Z Vertex 4 {m}

OS:Surface,
  {c0d99924-a8a2-4121-9a78-1c587fe78384}, !- Handle
  0:26:0,                                 !- Name
  Wall,                                   !- Surface Type
  ,                                       !- Construction Name
  {7e70d469-6eff-466d-93e3-0fe90e13b018}, !- Space Name
  Outdoors,                               !- Outside Boundary Condition
  ,                                       !- Outside Boundary Condition Object
  SunExposed,                             !- Sun Exposure
  WindExposed,                            !- Wind Exposure
  ,                                       !- View Factor to Ground
  ,                                       !- Number of Vertices
  30.66375, 0.611249999999998, 3.75,      !- X,Y,Z Vertex 1 {m}
  30.66375, 0.611249999999998, 0,         !- X,Y,Z Vertex 2 {m}
  40.885, 0.815000000000001, 0,           !- X,Y,Z Vertex 3 {m}
  40.885, 0.815000000000001, 3.75;        !- X,Y,Z Vertex 4 {m}

OS:Surface,
  {786cb56f-735b-414c-a82f-9759d445a7c2}, !- Handle
  0:27:0,                                 !- Name
  Wall,                                   !- Surface Type
  ,                                       !- Construction Name
  {7e70d469-6eff-466d-93e3-0fe90e13b018}, !- Space Name
  Outdoors,                               !- Outside Boundary Condition
  ,                                       !- Outside Boundary Condition Object
  SunExposed,                             !- Sun Exposure
  WindExposed,                            !- Wind Exposure
  ,                                       !- View Factor to Ground
  ,                                       !- Number of Vertices
  20.4425, 0.407499999999999, 3.75,       !- X,Y,Z Vertex 1 {m}
  20.4425, 0.407499999999999, 0,          !- X,Y,Z Vertex 2 {m}
  30.66375, 0.611249999999998, 0,         !- X,Y,Z Vertex 3 {m}
  30.66375, 0.611249999999998, 3.75;      !- X,Y,Z Vertex 4 {m}

OS:Surface,
  {ae742001-775c-4d0b-b0de-cd0e8b18c045}, !- Handle
  0:28:0,                                 !- Name
  Wall,                                   !- Surface Type
  ,                                       !- Construction Name
  {7e70d469-6eff-466d-93e3-0fe90e13b018}, !- Space Name
  Outdoors,                               !- Outside Boundary Condition
  ,                                       !- Outside Boundary Condition Object
  SunExposed,                             !- Sun Exposure
  WindExposed,                            !- Wind Exposure
  ,                                       !- View Factor to Ground
  ,                                       !- Number of Vertices
  10.22125, 0.203749999999999, 3.75,      !- X,Y,Z Vertex 1 {m}
  10.22125, 0.203749999999999, 0,         !- X,Y,Z Vertex 2 {m}
  20.4425, 0.407499999999999, 0,          !- X,Y,Z Vertex 3 {m}
  20.4425, 0.407499999999999, 3.75;       !- X,Y,Z Vertex 4 {m}

OS:Surface,
  {5933bd23-5bf9-4364-9c39-49cb9a8b95ab}, !- Handle
  0:29:0,                                 !- Name
  Wall,                                   !- Surface Type
  ,                                       !- Construction Name
  {7e70d469-6eff-466d-93e3-0fe90e13b018}, !- Space Name
  Outdoors,                               !- Outside Boundary Condition
  ,                                       !- Outside Boundary Condition Object
  SunExposed,                             !- Sun Exposure
  WindExposed,                            !- Wind Exposure
  ,                                       !- View Factor to Ground
  ,                                       !- Number of Vertices
  -4.49615496201514e-19, 2.25552509965632e-17, 3.75, !- X,Y,Z Vertex 1 {m}
  -4.49615496201514e-19, 2.25552509965632e-17, 0, !- X,Y,Z Vertex 2 {m}
  10.22125, 0.203749999999999, 0,         !- X,Y,Z Vertex 3 {m}
  10.22125, 0.203749999999999, 3.75;      !- X,Y,Z Vertex 4 {m}

OS:Surface,
  {ad63b342-7c54-4592-bc1c-cd048c641b09}, !- Handle
  0:30:0,                                 !- Name
  RoofCeiling,                            !- Surface Type
  ,                                       !- Construction Name
  {7e70d469-6eff-466d-93e3-0fe90e13b018}, !- Space Name
  Surface,                                !- Outside Boundary Condition
  {621e8639-0b60-4af8-be43-2d19166cc930}, !- Outside Boundary Condition Object
  NoSun,                                  !- Sun Exposure
  NoWind,                                 !- Wind Exposure
  ,                                       !- View Factor to Ground
  ,                                       !- Number of Vertices
  0, 0, 3.75,                             !- X,Y,Z Vertex 1 {m}
  81.77, 1.63, 3.75,                      !- X,Y,Z Vertex 2 {m}
  79.22, 68.69, 3.75,                     !- X,Y,Z Vertex 3 {m}
  61.28, 68.69, 3.75,                     !- X,Y,Z Vertex 4 {m}
  60.81, 22.77, 3.75,                     !- X,Y,Z Vertex 5 {m}
  0, 22.31, 3.75;                         !- X,Y,Z Vertex 6 {m}
