
OS:Version,
  {20e089aa-09bd-4cf4-b1fe-d21f576b0f96}, !- Handle
  1.7.0;                                  !- Version Identifier

OS:BuildingStory,
  {2f617a31-2d66-4fa9-9b00-43a919e15275}, !- Handle
  LShape:Story 1,                         !- Name
  0,                                      !- Nominal Z Coordinate {m}
  1.24875,                                !- Nominal Floor to Floor Height {m}
  ,                                       !- Default Construction Set Name
  ,                                       !- Default Schedule Set Name
  ;                                       !- Group Rendering Name

OS:Space,
  {37a74e2f-e366-466d-b89b-320e8b2bcc75}, !- Handle
  0 Core Space,                           !- Name
  ,                                       !- Space Type Name
  ,                                       !- Default Construction Set Name
  ,                                       !- Default Schedule Set Name
  -0,                                     !- Direction of Relative North {deg}
  -55.0553339831846,                      !- X Origin {m}
  11.667261889578,                        !- Y Origin {m}
  0,                                      !- Z Origin {m}
  {2f617a31-2d66-4fa9-9b00-43a919e15275}, !- Building Story Name
  {2bf6e83b-0e77-4b2c-a605-887002dafc93}; !- Thermal Zone Name

OS:Surface,
  {24311d60-958b-4340-b58b-5d06e2248cc6}, !- Handle
  Surface 1,                              !- Name
  Floor,                                  !- Surface Type
  ,                                       !- Construction Name
  {37a74e2f-e366-466d-b89b-320e8b2bcc75}, !- Space Name
  Ground,                                 !- Outside Boundary Condition
  ,                                       !- Outside Boundary Condition Object
  NoSun,                                  !- Sun Exposure
  NoWind,                                 !- Wind Exposure
  ,                                       !- View Factor to Ground
  ,                                       !- Number of Vertices
  -1.4210854715202e-14, -3.19744231092045e-14, 0, !- X,Y,Z Vertex 1 {m}
  7.82303695842999, 7.82303695842997, 0,  !- X,Y,Z Vertex 2 {m}
  15.64607391686, 15.64607391686, 0,      !- X,Y,Z Vertex 3 {m}
  26.6030964658664, 4.68905136785367, 0,  !- X,Y,Z Vertex 4 {m}
  37.5601190148727, -6.26797118115273, 0, !- X,Y,Z Vertex 5 {m}
  48.5171415638791, -17.2249937301591, 0, !- X,Y,Z Vertex 6 {m}
  59.4741641128855, -28.1820162791654, 0, !- X,Y,Z Vertex 7 {m}
  70.2087781015634, -17.4474022904876, 0, !- X,Y,Z Vertex 8 {m}
  80.9433920902413, -6.71278830180967, 0, !- X,Y,Z Vertex 9 {m}
  91.6780060789191, 4.02182568686817, 0,  !- X,Y,Z Vertex 10 {m}
  98.1430277703901, -2.44319600460273, 0, !- X,Y,Z Vertex 11 {m}
  104.608049461861, -8.90821769607368, 0, !- X,Y,Z Vertex 12 {m}
  92.6455704911376, -20.8706966667971, 0, !- X,Y,Z Vertex 13 {m}
  80.6830915204142, -32.8331756375205, 0, !- X,Y,Z Vertex 14 {m}
  68.7206125496908, -44.7956546082439, 0, !- X,Y,Z Vertex 15 {m}
  56.7581335789674, -56.7581335789673, 0, !- X,Y,Z Vertex 16 {m}
  45.4065068631739, -45.4065068631739, 0, !- X,Y,Z Vertex 17 {m}
  34.0548801473804, -34.0548801473804, 0, !- X,Y,Z Vertex 18 {m}
  22.703253431587, -22.7032534315869, 0,  !- X,Y,Z Vertex 19 {m}
  11.3516267157935, -11.3516267157935, 0; !- X,Y,Z Vertex 20 {m}

OS:Surface,
  {f583ed1a-d86c-4cb5-a172-9eaf6029bd73}, !- Handle
  Surface 2,                              !- Name
  Wall,                                   !- Surface Type
  ,                                       !- Construction Name
  {37a74e2f-e366-466d-b89b-320e8b2bcc75}, !- Space Name
  Outdoors,                               !- Outside Boundary Condition
  ,                                       !- Outside Boundary Condition Object
  SunExposed,                             !- Sun Exposure
  WindExposed,                            !- Wind Exposure
  ,                                       !- View Factor to Ground
  ,                                       !- Number of Vertices
  7.82303695842999, 7.82303695842997, 1.24875, !- X,Y,Z Vertex 1 {m}
  7.82303695842999, 7.82303695842997, 0,  !- X,Y,Z Vertex 2 {m}
  -1.4210854715202e-14, -3.19744231092045e-14, 0, !- X,Y,Z Vertex 3 {m}
  -1.4210854715202e-14, -3.19744231092045e-14, 1.24875; !- X,Y,Z Vertex 4 {m}

OS:Surface,
  {8c871704-000a-4721-8be8-eadcd81aa07a}, !- Handle
  Surface 3,                              !- Name
  Wall,                                   !- Surface Type
  ,                                       !- Construction Name
  {37a74e2f-e366-466d-b89b-320e8b2bcc75}, !- Space Name
  Outdoors,                               !- Outside Boundary Condition
  ,                                       !- Outside Boundary Condition Object
  SunExposed,                             !- Sun Exposure
  WindExposed,                            !- Wind Exposure
  ,                                       !- View Factor to Ground
  ,                                       !- Number of Vertices
  15.64607391686, 15.64607391686, 1.24875, !- X,Y,Z Vertex 1 {m}
  15.64607391686, 15.64607391686, 0,      !- X,Y,Z Vertex 2 {m}
  7.82303695842999, 7.82303695842997, 0,  !- X,Y,Z Vertex 3 {m}
  7.82303695842999, 7.82303695842997, 1.24875; !- X,Y,Z Vertex 4 {m}

OS:Surface,
  {3d2983f0-a232-4b93-af94-91f9bca53c85}, !- Handle
  Surface 4,                              !- Name
  Wall,                                   !- Surface Type
  ,                                       !- Construction Name
  {37a74e2f-e366-466d-b89b-320e8b2bcc75}, !- Space Name
  Outdoors,                               !- Outside Boundary Condition
  ,                                       !- Outside Boundary Condition Object
  SunExposed,                             !- Sun Exposure
  WindExposed,                            !- Wind Exposure
  ,                                       !- View Factor to Ground
  ,                                       !- Number of Vertices
  26.6030964658664, 4.68905136785367, 1.24875, !- X,Y,Z Vertex 1 {m}
  26.6030964658664, 4.68905136785367, 0,  !- X,Y,Z Vertex 2 {m}
  15.64607391686, 15.64607391686, 0,      !- X,Y,Z Vertex 3 {m}
  15.64607391686, 15.64607391686, 1.24875; !- X,Y,Z Vertex 4 {m}

OS:Surface,
  {af8fd857-53db-4f75-a60b-8021d03dba4a}, !- Handle
  Surface 5,                              !- Name
  Wall,                                   !- Surface Type
  ,                                       !- Construction Name
  {37a74e2f-e366-466d-b89b-320e8b2bcc75}, !- Space Name
  Outdoors,                               !- Outside Boundary Condition
  ,                                       !- Outside Boundary Condition Object
  SunExposed,                             !- Sun Exposure
  WindExposed,                            !- Wind Exposure
  ,                                       !- View Factor to Ground
  ,                                       !- Number of Vertices
  37.5601190148727, -6.26797118115273, 1.24875, !- X,Y,Z Vertex 1 {m}
  37.5601190148727, -6.26797118115273, 0, !- X,Y,Z Vertex 2 {m}
  26.6030964658664, 4.68905136785367, 0,  !- X,Y,Z Vertex 3 {m}
  26.6030964658664, 4.68905136785367, 1.24875; !- X,Y,Z Vertex 4 {m}

OS:Surface,
  {3cd12fcf-e381-4af9-9342-ea9c7ebe097e}, !- Handle
  Surface 6,                              !- Name
  Wall,                                   !- Surface Type
  ,                                       !- Construction Name
  {37a74e2f-e366-466d-b89b-320e8b2bcc75}, !- Space Name
  Outdoors,                               !- Outside Boundary Condition
  ,                                       !- Outside Boundary Condition Object
  SunExposed,                             !- Sun Exposure
  WindExposed,                            !- Wind Exposure
  ,                                       !- View Factor to Ground
  ,                                       !- Number of Vertices
  48.5171415638791, -17.2249937301591, 1.24875, !- X,Y,Z Vertex 1 {m}
  48.5171415638791, -17.2249937301591, 0, !- X,Y,Z Vertex 2 {m}
  37.5601190148727, -6.26797118115273, 0, !- X,Y,Z Vertex 3 {m}
  37.5601190148727, -6.26797118115273, 1.24875; !- X,Y,Z Vertex 4 {m}

OS:Surface,
  {b52303b2-5830-445c-b113-89c7c9595ffd}, !- Handle
  Surface 7,                              !- Name
  Wall,                                   !- Surface Type
  ,                                       !- Construction Name
  {37a74e2f-e366-466d-b89b-320e8b2bcc75}, !- Space Name
  Outdoors,                               !- Outside Boundary Condition
  ,                                       !- Outside Boundary Condition Object
  SunExposed,                             !- Sun Exposure
  WindExposed,                            !- Wind Exposure
  ,                                       !- View Factor to Ground
  ,                                       !- Number of Vertices
  59.4741641128855, -28.1820162791654, 1.24875, !- X,Y,Z Vertex 1 {m}
  59.4741641128855, -28.1820162791654, 0, !- X,Y,Z Vertex 2 {m}
  48.5171415638791, -17.2249937301591, 0, !- X,Y,Z Vertex 3 {m}
  48.5171415638791, -17.2249937301591, 1.24875; !- X,Y,Z Vertex 4 {m}

OS:Surface,
  {7b1e9455-7946-452f-84b7-6fd3aff07bd8}, !- Handle
  Surface 8,                              !- Name
  Wall,                                   !- Surface Type
  ,                                       !- Construction Name
  {37a74e2f-e366-466d-b89b-320e8b2bcc75}, !- Space Name
  Outdoors,                               !- Outside Boundary Condition
  ,                                       !- Outside Boundary Condition Object
  SunExposed,                             !- Sun Exposure
  WindExposed,                            !- Wind Exposure
  ,                                       !- View Factor to Ground
  ,                                       !- Number of Vertices
  70.2087781015634, -17.4474022904876, 1.24875, !- X,Y,Z Vertex 1 {m}
  70.2087781015634, -17.4474022904876, 0, !- X,Y,Z Vertex 2 {m}
  59.4741641128855, -28.1820162791654, 0, !- X,Y,Z Vertex 3 {m}
  59.4741641128855, -28.1820162791654, 1.24875; !- X,Y,Z Vertex 4 {m}

OS:Surface,
  {4297d4df-844e-406e-9f74-1f7e3f7165d7}, !- Handle
  Surface 9,                              !- Name
  Wall,                                   !- Surface Type
  ,                                       !- Construction Name
  {37a74e2f-e366-466d-b89b-320e8b2bcc75}, !- Space Name
  Outdoors,                               !- Outside Boundary Condition
  ,                                       !- Outside Boundary Condition Object
  SunExposed,                             !- Sun Exposure
  WindExposed,                            !- Wind Exposure
  ,                                       !- View Factor to Ground
  ,                                       !- Number of Vertices
  80.9433920902413, -6.71278830180967, 1.24875, !- X,Y,Z Vertex 1 {m}
  80.9433920902413, -6.71278830180967, 0, !- X,Y,Z Vertex 2 {m}
  70.2087781015634, -17.4474022904876, 0, !- X,Y,Z Vertex 3 {m}
  70.2087781015634, -17.4474022904876, 1.24875; !- X,Y,Z Vertex 4 {m}

OS:Surface,
  {7e35b4b2-ca83-4b4a-8173-36586b23200d}, !- Handle
  Surface 10,                             !- Name
  Wall,                                   !- Surface Type
  ,                                       !- Construction Name
  {37a74e2f-e366-466d-b89b-320e8b2bcc75}, !- Space Name
  Outdoors,                               !- Outside Boundary Condition
  ,                                       !- Outside Boundary Condition Object
  SunExposed,                             !- Sun Exposure
  WindExposed,                            !- Wind Exposure
  ,                                       !- View Factor to Ground
  ,                                       !- Number of Vertices
  91.6780060789191, 4.02182568686817, 1.24875, !- X,Y,Z Vertex 1 {m}
  91.6780060789191, 4.02182568686817, 0,  !- X,Y,Z Vertex 2 {m}
  80.9433920902413, -6.71278830180967, 0, !- X,Y,Z Vertex 3 {m}
  80.9433920902413, -6.71278830180967, 1.24875; !- X,Y,Z Vertex 4 {m}

OS:Surface,
  {e49f5545-b303-449b-87e0-6b6746d2ac96}, !- Handle
  Surface 11,                             !- Name
  Wall,                                   !- Surface Type
  ,                                       !- Construction Name
  {37a74e2f-e366-466d-b89b-320e8b2bcc75}, !- Space Name
  Outdoors,                               !- Outside Boundary Condition
  ,                                       !- Outside Boundary Condition Object
  SunExposed,                             !- Sun Exposure
  WindExposed,                            !- Wind Exposure
  ,                                       !- View Factor to Ground
  ,                                       !- Number of Vertices
  98.1430277703901, -2.44319600460273, 1.24875, !- X,Y,Z Vertex 1 {m}
  98.1430277703901, -2.44319600460273, 0, !- X,Y,Z Vertex 2 {m}
  91.6780060789191, 4.02182568686817, 0,  !- X,Y,Z Vertex 3 {m}
  91.6780060789191, 4.02182568686817, 1.24875; !- X,Y,Z Vertex 4 {m}

OS:Surface,
  {79d83c64-43bf-425f-9785-60d3ffdb3de4}, !- Handle
  Surface 12,                             !- Name
  Wall,                                   !- Surface Type
  ,                                       !- Construction Name
  {37a74e2f-e366-466d-b89b-320e8b2bcc75}, !- Space Name
  Outdoors,                               !- Outside Boundary Condition
  ,                                       !- Outside Boundary Condition Object
  SunExposed,                             !- Sun Exposure
  WindExposed,                            !- Wind Exposure
  ,                                       !- View Factor to Ground
  ,                                       !- Number of Vertices
  104.608049461861, -8.90821769607368, 1.24875, !- X,Y,Z Vertex 1 {m}
  104.608049461861, -8.90821769607368, 0, !- X,Y,Z Vertex 2 {m}
  98.1430277703901, -2.44319600460273, 0, !- X,Y,Z Vertex 3 {m}
  98.1430277703901, -2.44319600460273, 1.24875; !- X,Y,Z Vertex 4 {m}

OS:Surface,
  {f3eab209-fcc8-4561-a759-406c039f385d}, !- Handle
  Surface 13,                             !- Name
  Wall,                                   !- Surface Type
  ,                                       !- Construction Name
  {37a74e2f-e366-466d-b89b-320e8b2bcc75}, !- Space Name
  Outdoors,                               !- Outside Boundary Condition
  ,                                       !- Outside Boundary Condition Object
  SunExposed,                             !- Sun Exposure
  WindExposed,                            !- Wind Exposure
  ,                                       !- View Factor to Ground
  ,                                       !- Number of Vertices
  92.6455704911376, -20.8706966667971, 1.24875, !- X,Y,Z Vertex 1 {m}
  92.6455704911376, -20.8706966667971, 0, !- X,Y,Z Vertex 2 {m}
  104.608049461861, -8.90821769607368, 0, !- X,Y,Z Vertex 3 {m}
  104.608049461861, -8.90821769607368, 1.24875; !- X,Y,Z Vertex 4 {m}

OS:Surface,
  {51bb7f95-9df4-4438-9d04-9cf11b268225}, !- Handle
  Surface 14,                             !- Name
  Wall,                                   !- Surface Type
  ,                                       !- Construction Name
  {37a74e2f-e366-466d-b89b-320e8b2bcc75}, !- Space Name
  Outdoors,                               !- Outside Boundary Condition
  ,                                       !- Outside Boundary Condition Object
  SunExposed,                             !- Sun Exposure
  WindExposed,                            !- Wind Exposure
  ,                                       !- View Factor to Ground
  ,                                       !- Number of Vertices
  80.6830915204142, -32.8331756375205, 1.24875, !- X,Y,Z Vertex 1 {m}
  80.6830915204142, -32.8331756375205, 0, !- X,Y,Z Vertex 2 {m}
  92.6455704911376, -20.8706966667971, 0, !- X,Y,Z Vertex 3 {m}
  92.6455704911376, -20.8706966667971, 1.24875; !- X,Y,Z Vertex 4 {m}

OS:Surface,
  {f783d7d8-62df-4822-b852-aa7ac7dabe46}, !- Handle
  Surface 15,                             !- Name
  Wall,                                   !- Surface Type
  ,                                       !- Construction Name
  {37a74e2f-e366-466d-b89b-320e8b2bcc75}, !- Space Name
  Outdoors,                               !- Outside Boundary Condition
  ,                                       !- Outside Boundary Condition Object
  SunExposed,                             !- Sun Exposure
  WindExposed,                            !- Wind Exposure
  ,                                       !- View Factor to Ground
  ,                                       !- Number of Vertices
  68.7206125496908, -44.7956546082439, 1.24875, !- X,Y,Z Vertex 1 {m}
  68.7206125496908, -44.7956546082439, 0, !- X,Y,Z Vertex 2 {m}
  80.6830915204142, -32.8331756375205, 0, !- X,Y,Z Vertex 3 {m}
  80.6830915204142, -32.8331756375205, 1.24875; !- X,Y,Z Vertex 4 {m}

OS:Surface,
  {07268b29-76c0-45b8-8d27-08c79cb84bb1}, !- Handle
  Surface 16,                             !- Name
  Wall,                                   !- Surface Type
  ,                                       !- Construction Name
  {37a74e2f-e366-466d-b89b-320e8b2bcc75}, !- Space Name
  Outdoors,                               !- Outside Boundary Condition
  ,                                       !- Outside Boundary Condition Object
  SunExposed,                             !- Sun Exposure
  WindExposed,                            !- Wind Exposure
  ,                                       !- View Factor to Ground
  ,                                       !- Number of Vertices
  56.7581335789674, -56.7581335789673, 1.24875, !- X,Y,Z Vertex 1 {m}
  56.7581335789674, -56.7581335789673, 0, !- X,Y,Z Vertex 2 {m}
  68.7206125496908, -44.7956546082439, 0, !- X,Y,Z Vertex 3 {m}
  68.7206125496908, -44.7956546082439, 1.24875; !- X,Y,Z Vertex 4 {m}

OS:Surface,
  {93af69c1-df8d-45f7-8cab-8cfb4241ec50}, !- Handle
  Surface 17,                             !- Name
  Wall,                                   !- Surface Type
  ,                                       !- Construction Name
  {37a74e2f-e366-466d-b89b-320e8b2bcc75}, !- Space Name
  Outdoors,                               !- Outside Boundary Condition
  ,                                       !- Outside Boundary Condition Object
  SunExposed,                             !- Sun Exposure
  WindExposed,                            !- Wind Exposure
  ,                                       !- View Factor to Ground
  ,                                       !- Number of Vertices
  45.4065068631739, -45.4065068631739, 1.24875, !- X,Y,Z Vertex 1 {m}
  45.4065068631739, -45.4065068631739, 0, !- X,Y,Z Vertex 2 {m}
  56.7581335789674, -56.7581335789673, 0, !- X,Y,Z Vertex 3 {m}
  56.7581335789674, -56.7581335789673, 1.24875; !- X,Y,Z Vertex 4 {m}

OS:Surface,
  {27692bd1-a0bd-42fd-86b5-deb95b87d537}, !- Handle
  Surface 18,                             !- Name
  Wall,                                   !- Surface Type
  ,                                       !- Construction Name
  {37a74e2f-e366-466d-b89b-320e8b2bcc75}, !- Space Name
  Outdoors,                               !- Outside Boundary Condition
  ,                                       !- Outside Boundary Condition Object
  SunExposed,                             !- Sun Exposure
  WindExposed,                            !- Wind Exposure
  ,                                       !- View Factor to Ground
  ,                                       !- Number of Vertices
  34.0548801473804, -34.0548801473804, 1.24875, !- X,Y,Z Vertex 1 {m}
  34.0548801473804, -34.0548801473804, 0, !- X,Y,Z Vertex 2 {m}
  45.4065068631739, -45.4065068631739, 0, !- X,Y,Z Vertex 3 {m}
  45.4065068631739, -45.4065068631739, 1.24875; !- X,Y,Z Vertex 4 {m}

OS:Surface,
  {5bc1c53a-6a47-48a7-bbc8-8dc231b35fa2}, !- Handle
  Surface 19,                             !- Name
  Wall,                                   !- Surface Type
  ,                                       !- Construction Name
  {37a74e2f-e366-466d-b89b-320e8b2bcc75}, !- Space Name
  Outdoors,                               !- Outside Boundary Condition
  ,                                       !- Outside Boundary Condition Object
  SunExposed,                             !- Sun Exposure
  WindExposed,                            !- Wind Exposure
  ,                                       !- View Factor to Ground
  ,                                       !- Number of Vertices
  22.703253431587, -22.7032534315869, 1.24875, !- X,Y,Z Vertex 1 {m}
  22.703253431587, -22.7032534315869, 0,  !- X,Y,Z Vertex 2 {m}
  34.0548801473804, -34.0548801473804, 0, !- X,Y,Z Vertex 3 {m}
  34.0548801473804, -34.0548801473804, 1.24875; !- X,Y,Z Vertex 4 {m}

OS:Surface,
  {17761a27-3dcd-4200-947c-d4fea8555c3c}, !- Handle
  Surface 20,                             !- Name
  Wall,                                   !- Surface Type
  ,                                       !- Construction Name
  {37a74e2f-e366-466d-b89b-320e8b2bcc75}, !- Space Name
  Outdoors,                               !- Outside Boundary Condition
  ,                                       !- Outside Boundary Condition Object
  SunExposed,                             !- Sun Exposure
  WindExposed,                            !- Wind Exposure
  ,                                       !- View Factor to Ground
  ,                                       !- Number of Vertices
  11.3516267157935, -11.3516267157935, 1.24875, !- X,Y,Z Vertex 1 {m}
  11.3516267157935, -11.3516267157935, 0, !- X,Y,Z Vertex 2 {m}
  22.703253431587, -22.7032534315869, 0,  !- X,Y,Z Vertex 3 {m}
  22.703253431587, -22.7032534315869, 1.24875; !- X,Y,Z Vertex 4 {m}

OS:Surface,
  {4ca3aad6-7eb6-4a6b-9287-3d299f1775da}, !- Handle
  Surface 21,                             !- Name
  Wall,                                   !- Surface Type
  ,                                       !- Construction Name
  {37a74e2f-e366-466d-b89b-320e8b2bcc75}, !- Space Name
  Outdoors,                               !- Outside Boundary Condition
  ,                                       !- Outside Boundary Condition Object
  SunExposed,                             !- Sun Exposure
  WindExposed,                            !- Wind Exposure
  ,                                       !- View Factor to Ground
  ,                                       !- Number of Vertices
  -1.4210854715202e-14, -3.19744231092045e-14, 1.24875, !- X,Y,Z Vertex 1 {m}
  -1.4210854715202e-14, -3.19744231092045e-14, 0, !- X,Y,Z Vertex 2 {m}
  11.3516267157935, -11.3516267157935, 0, !- X,Y,Z Vertex 3 {m}
  11.3516267157935, -11.3516267157935, 1.24875; !- X,Y,Z Vertex 4 {m}

OS:Surface,
  {1f1b1e3d-ac3a-4c31-a7fa-579c8285612a}, !- Handle
  Surface 22,                             !- Name
  RoofCeiling,                            !- Surface Type
  ,                                       !- Construction Name
  {37a74e2f-e366-466d-b89b-320e8b2bcc75}, !- Space Name
  Surface,                                !- Outside Boundary Condition
  {6c9ce85a-9a84-49e0-8733-f1a0938bf6ba}, !- Outside Boundary Condition Object
  NoSun,                                  !- Sun Exposure
  NoWind,                                 !- Wind Exposure
  ,                                       !- View Factor to Ground
  ,                                       !- Number of Vertices
  11.3516267157935, -11.3516267157935, 1.24875, !- X,Y,Z Vertex 1 {m}
  22.703253431587, -22.7032534315869, 1.24875, !- X,Y,Z Vertex 2 {m}
  34.0548801473804, -34.0548801473804, 1.24875, !- X,Y,Z Vertex 3 {m}
  45.4065068631739, -45.4065068631739, 1.24875, !- X,Y,Z Vertex 4 {m}
  56.7581335789674, -56.7581335789673, 1.24875, !- X,Y,Z Vertex 5 {m}
  68.7206125496908, -44.7956546082439, 1.24875, !- X,Y,Z Vertex 6 {m}
  80.6830915204142, -32.8331756375205, 1.24875, !- X,Y,Z Vertex 7 {m}
  92.6455704911376, -20.8706966667971, 1.24875, !- X,Y,Z Vertex 8 {m}
  104.608049461861, -8.90821769607368, 1.24875, !- X,Y,Z Vertex 9 {m}
  98.1430277703901, -2.44319600460273, 1.24875, !- X,Y,Z Vertex 10 {m}
  91.6780060789191, 4.02182568686817, 1.24875, !- X,Y,Z Vertex 11 {m}
  80.9433920902413, -6.71278830180967, 1.24875, !- X,Y,Z Vertex 12 {m}
  70.2087781015634, -17.4474022904876, 1.24875, !- X,Y,Z Vertex 13 {m}
  59.4741641128855, -28.1820162791654, 1.24875, !- X,Y,Z Vertex 14 {m}
  48.5171415638791, -17.2249937301591, 1.24875, !- X,Y,Z Vertex 15 {m}
  37.5601190148727, -6.26797118115273, 1.24875, !- X,Y,Z Vertex 16 {m}
  26.6030964658664, 4.68905136785367, 1.24875, !- X,Y,Z Vertex 17 {m}
  15.64607391686, 15.64607391686, 1.24875, !- X,Y,Z Vertex 18 {m}
  7.82303695842999, 7.82303695842997, 1.24875, !- X,Y,Z Vertex 19 {m}
  -1.4210854715202e-14, -3.19744231092045e-14, 1.24875; !- X,Y,Z Vertex 20 {m}

OS:BuildingStory,
  {821aa599-f5c0-4a51-9895-f05d8a8112bf}, !- Handle
  LShape:Story 2,                         !- Name
  1.24875,                                !- Nominal Z Coordinate {m}
  0.8325,                                 !- Nominal Floor to Floor Height {m}
  ,                                       !- Default Construction Set Name
  ,                                       !- Default Schedule Set Name
  ;                                       !- Group Rendering Name

OS:Space,
  {62615de0-01c6-45c9-9b82-084ef737f082}, !- Handle
  0 Core Space 1,                         !- Name
  ,                                       !- Space Type Name
  ,                                       !- Default Construction Set Name
  ,                                       !- Default Schedule Set Name
  -0,                                     !- Direction of Relative North {deg}
  -55.0553339831846,                      !- X Origin {m}
  11.667261889578,                        !- Y Origin {m}
  1.24875,                                !- Z Origin {m}
  {821aa599-f5c0-4a51-9895-f05d8a8112bf}, !- Building Story Name
  {c6d7316a-42c8-414c-b633-d89ac3ba4ea4}; !- Thermal Zone Name

OS:Surface,
  {6c9ce85a-9a84-49e0-8733-f1a0938bf6ba}, !- Handle
  Surface 23,                             !- Name
  Floor,                                  !- Surface Type
  ,                                       !- Construction Name
  {62615de0-01c6-45c9-9b82-084ef737f082}, !- Space Name
  Surface,                                !- Outside Boundary Condition
  {1f1b1e3d-ac3a-4c31-a7fa-579c8285612a}, !- Outside Boundary Condition Object
  NoSun,                                  !- Sun Exposure
  NoWind,                                 !- Wind Exposure
  ,                                       !- View Factor to Ground
  ,                                       !- Number of Vertices
  -1.4210854715202e-14, -3.19744231092045e-14, 0, !- X,Y,Z Vertex 1 {m}
  7.82303695842999, 7.82303695842997, 0,  !- X,Y,Z Vertex 2 {m}
  15.64607391686, 15.64607391686, 0,      !- X,Y,Z Vertex 3 {m}
  26.6030964658664, 4.68905136785367, 0,  !- X,Y,Z Vertex 4 {m}
  37.5601190148727, -6.26797118115273, 0, !- X,Y,Z Vertex 5 {m}
  48.5171415638791, -17.2249937301591, 0, !- X,Y,Z Vertex 6 {m}
  59.4741641128855, -28.1820162791654, 0, !- X,Y,Z Vertex 7 {m}
  70.2087781015634, -17.4474022904876, 0, !- X,Y,Z Vertex 8 {m}
  80.9433920902413, -6.71278830180967, 0, !- X,Y,Z Vertex 9 {m}
  91.6780060789191, 4.02182568686817, 0,  !- X,Y,Z Vertex 10 {m}
  98.1430277703901, -2.44319600460273, 0, !- X,Y,Z Vertex 11 {m}
  104.608049461861, -8.90821769607368, 0, !- X,Y,Z Vertex 12 {m}
  92.6455704911376, -20.8706966667971, 0, !- X,Y,Z Vertex 13 {m}
  80.6830915204142, -32.8331756375205, 0, !- X,Y,Z Vertex 14 {m}
  68.7206125496908, -44.7956546082439, 0, !- X,Y,Z Vertex 15 {m}
  56.7581335789674, -56.7581335789673, 0, !- X,Y,Z Vertex 16 {m}
  45.4065068631739, -45.4065068631739, 0, !- X,Y,Z Vertex 17 {m}
  34.0548801473804, -34.0548801473804, 0, !- X,Y,Z Vertex 18 {m}
  22.703253431587, -22.7032534315869, 0,  !- X,Y,Z Vertex 19 {m}
  11.3516267157935, -11.3516267157935, 0; !- X,Y,Z Vertex 20 {m}

OS:Surface,
  {938a14df-eebe-4c91-9419-9e3d2c66ab41}, !- Handle
  Surface 24,                             !- Name
  Wall,                                   !- Surface Type
  ,                                       !- Construction Name
  {62615de0-01c6-45c9-9b82-084ef737f082}, !- Space Name
  Outdoors,                               !- Outside Boundary Condition
  ,                                       !- Outside Boundary Condition Object
  SunExposed,                             !- Sun Exposure
  WindExposed,                            !- Wind Exposure
  ,                                       !- View Factor to Ground
  ,                                       !- Number of Vertices
  7.82303695842999, 7.82303695842997, 0.8325, !- X,Y,Z Vertex 1 {m}
  7.82303695842999, 7.82303695842997, 0,  !- X,Y,Z Vertex 2 {m}
  -1.4210854715202e-14, -3.19744231092045e-14, 0, !- X,Y,Z Vertex 3 {m}
  -1.4210854715202e-14, -3.19744231092045e-14, 0.8325; !- X,Y,Z Vertex 4 {m}

OS:Surface,
  {4f290c4b-8dbe-4d4e-b4fd-01e0c9f7e76a}, !- Handle
  Surface 25,                             !- Name
  Wall,                                   !- Surface Type
  ,                                       !- Construction Name
  {62615de0-01c6-45c9-9b82-084ef737f082}, !- Space Name
  Outdoors,                               !- Outside Boundary Condition
  ,                                       !- Outside Boundary Condition Object
  SunExposed,                             !- Sun Exposure
  WindExposed,                            !- Wind Exposure
  ,                                       !- View Factor to Ground
  ,                                       !- Number of Vertices
  15.64607391686, 15.64607391686, 0.8325, !- X,Y,Z Vertex 1 {m}
  15.64607391686, 15.64607391686, 0,      !- X,Y,Z Vertex 2 {m}
  7.82303695842999, 7.82303695842997, 0,  !- X,Y,Z Vertex 3 {m}
  7.82303695842999, 7.82303695842997, 0.8325; !- X,Y,Z Vertex 4 {m}

OS:Surface,
  {d88858c3-1e34-4244-ac1b-6fb2621032e9}, !- Handle
  Surface 26,                             !- Name
  Wall,                                   !- Surface Type
  ,                                       !- Construction Name
  {62615de0-01c6-45c9-9b82-084ef737f082}, !- Space Name