
Version,
  8.2;                                    !- Version Identifier

LifeCycleCost:Parameters,
  {f6a1d273-4b8e-4b61-ad8f-ee3472dc4e84}, !- Name
  EndOfYear,                              !- Discounting Convention
  ConstantDollar,                         !- Inflation Approach
  0.03,                                   !- Real Discount Rate
  ,                                       !- Nominal Discount Rate
  ,                                       !- Inflation
  ,                                       !- Base Date Month
  2011,                                   !- Base Date Year
  ,                                       !- Service Date Month
  2011,                                   !- Service Date Year
  25,                                     !- Length of Study Period in Years
  ,                                       !- Tax rate
  None;                                   !- Depreciation Method

LifeCycleCost:UsePriceEscalation,
  U.S. Avg  Commercial-Electricity,       !- Name
  Electricity,                            !- Resource
  2011,                                   !- Escalation Start Year
  January,                                !- Escalation Start Month
  0.9838,                                 !- Year Escalation 1
  0.9730,                                 !- Year Escalation 2
  0.9632,                                 !- Year Escalation 3
  0.9611,                                 !- Year Escalation 4
  0.9571,                                 !- Year Escalation 5
  0.9553,                                 !- Year Escalation 6
  0.9539,                                 !- Year Escalation 7
  0.9521,                                 !- Year Escalation 8
  0.9546,                                 !- Year Escalation 9
  0.9550,                                 !- Year Escalation 10
  0.9553,                                 !- Year Escalation 11
  0.9564,                                 !- Year Escalation 12
  0.9575,                                 !- Year Escalation 13
  0.9596,                                 !- Year Escalation 14
  0.9618,                                 !- Year Escalation 15
  0.9614,                                 !- Year Escalation 16
  0.9618,                                 !- Year Escalation 17
  0.9618,                                 !- Year Escalation 18
  0.9593,                                 !- Year Escalation 19
  0.9589,                                 !- Year Escalation 20
  0.9607,                                 !- Year Escalation 21
  0.9625,                                 !- Year Escalation 22
  0.9650,                                 !- Year Escalation 23
  0.9708,                                 !- Year Escalation 24
  0.9751,                                 !- Year Escalation 25
  0.9762,                                 !- Year Escalation 26
  0.9766,                                 !- Year Escalation 27
  0.9766,                                 !- Year Escalation 28
  0.9769,                                 !- Year Escalation 29
  0.9773;                                 !- Year Escalation 30

LifeCycleCost:UsePriceEscalation,
  U.S. Avg  Commercial-Distillate Oil,    !- Name
  FuelOil#1,                              !- Resource
  2011,                                   !- Escalation Start Year
  January,                                !- Escalation Start Month
  0.9714,                                 !- Year Escalation 1
  0.9730,                                 !- Year Escalation 2
  0.9942,                                 !- Year Escalation 3
  1.0164,                                 !- Year Escalation 4
  1.0541,                                 !- Year Escalation 5
  1.0928,                                 !- Year Escalation 6
  1.1267,                                 !- Year Escalation 7
  1.1580,                                 !- Year Escalation 8
  1.1792,                                 !- Year Escalation 9
  1.1967,                                 !- Year Escalation 10
  1.2200,                                 !- Year Escalation 11
  1.2333,                                 !- Year Escalation 12
  1.2566,                                 !- Year Escalation 13
  1.2709,                                 !- Year Escalation 14
  1.2826,                                 !- Year Escalation 15
  1.2985,                                 !- Year Escalation 16
  1.3102,                                 !- Year Escalation 17
  1.3250,                                 !- Year Escalation 18
  1.3261,                                 !- Year Escalation 19
  1.3282,                                 !- Year Escalation 20
  1.3324,                                 !- Year Escalation 21
  1.3356,                                 !- Year Escalation 22
  1.3431,                                 !- Year Escalation 23
  1.3510,                                 !- Year Escalation 24
  1.3568,                                 !- Year Escalation 25
  1.3606,                                 !- Year Escalation 26
  1.3637,                                 !- Year Escalation 27
  1.3674,                                 !- Year Escalation 28
  1.3706,                                 !- Year Escalation 29
  1.3743;                                 !- Year Escalation 30

LifeCycleCost:UsePriceEscalation,
  U.S. Avg  Commercial-Residual Oil,      !- Name
  FuelOil#2,                              !- Resource
  2011,                                   !- Escalation Start Year
  January,                                !- Escalation Start Month
  0.8469,                                 !- Year Escalation 1
  0.8257,                                 !- Year Escalation 2
  0.8681,                                 !- Year Escalation 3
  0.8988,                                 !- Year Escalation 4
  0.9289,                                 !- Year Escalation 5
  0.9604,                                 !- Year Escalation 6
  0.9897,                                 !- Year Escalation 7
  1.0075,                                 !- Year Escalation 8
  1.0314,                                 !- Year Escalation 9
  1.0554,                                 !- Year Escalation 10
  1.0861,                                 !- Year Escalation 11
  1.1278,                                 !- Year Escalation 12
  1.1497,                                 !- Year Escalation 13
  1.1620,                                 !- Year Escalation 14
  1.1743,                                 !- Year Escalation 15
  1.1852,                                 !- Year Escalation 16
  1.1948,                                 !- Year Escalation 17
  1.2037,                                 !- Year Escalation 18
  1.2071,                                 !- Year Escalation 19
  1.2119,                                 !- Year Escalation 20
  1.2139,                                 !- Year Escalation 21
  1.2194,                                 !- Year Escalation 22
  1.2276,                                 !- Year Escalation 23
  1.2365,                                 !- Year Escalation 24
  1.2420,                                 !- Year Escalation 25
  1.2461,                                 !- Year Escalation 26
  1.2509,                                 !- Year Escalation 27
  1.2550,                                 !- Year Escalation 28
  1.2591,                                 !- Year Escalation 29
  1.2638;                                 !- Year Escalation 30

LifeCycleCost:UsePriceEscalation,
  U.S. Avg  Commercial-Natural gas,       !- Name
  NaturalGas,                             !- Resource
  2011,                                   !- Escalation Start Year
  January,                                !- Escalation Start Month
  0.9823,                                 !- Year Escalation 1
  0.9557,                                 !- Year Escalation 2
  0.9279,                                 !- Year Escalation 3
  0.9257,                                 !- Year Escalation 4
  0.9346,                                 !- Year Escalation 5
  0.9412,                                 !- Year Escalation 6
  0.9512,                                 !- Year Escalation 7
  0.9645,                                 !- Year Escalation 8
  0.9856,                                 !- Year Escalation 9
  1.0067,                                 !- Year Escalation 10
  1.0222,                                 !- Year Escalation 11
  1.0410,                                 !- Year Escalation 12
  1.0610,                                 !- Year Escalation 13
  1.0787,                                 !- Year Escalation 14
  1.0942,                                 !- Year Escalation 15
  1.1098,                                 !- Year Escalation 16
  1.1220,                                 !- Year Escalation 17
  1.1308,                                 !- Year Escalation 18
  1.1386,                                 !- Year Escalation 19
  1.1486,                                 !- Year Escalation 20
  1.1619,                                 !- Year Escalation 21
  1.1763,                                 !- Year Escalation 22
  1.1918,                                 !- Year Escalation 23
  1.2118,                                 !- Year Escalation 24
  1.2284,                                 !- Year Escalation 25
  1.2439,                                 !- Year Escalation 26
  1.2605,                                 !- Year Escalation 27
  1.2772,                                 !- Year Escalation 28
  1.2938,                                 !- Year Escalation 29
  1.3115;                                 !- Year Escalation 30

LifeCycleCost:UsePriceEscalation,
  U.S. Avg  Commercial-Coal,              !- Name
  Coal,                                   !- Resource
  2011,                                   !- Escalation Start Year
  January,                                !- Escalation Start Month
  0.9970,                                 !- Year Escalation 1
  1.0089,                                 !- Year Escalation 2
  1.0089,                                 !- Year Escalation 3
  0.9941,                                 !- Year Escalation 4
  0.9941,                                 !- Year Escalation 5
  1.0000,                                 !- Year Escalation 6
  1.0030,                                 !- Year Escalation 7
  1.0059,                                 !- Year Escalation 8
  1.0089,                                 !- Year Escalation 9
  1.0119,                                 !- Year Escalation 10
  1.0148,                                 !- Year Escalation 11
  1.0178,                                 !- Year Escalation 12
  1.0208,                                 !- Year Escalation 13
  1.0267,                                 !- Year Escalation 14
  1.0297,                                 !- Year Escalation 15
  1.0356,                                 !- Year Escalation 16
  1.0415,                                 !- Year Escalation 17
  1.0534,                                 !- Year Escalation 18
  1.0564,                                 !- Year Escalation 19
  1.0593,                                 !- Year Escalation 20
  1.0653,                                 !- Year Escalation 21
  1.0712,                                 !- Year Escalation 22
  1.0742,                                 !- Year Escalation 23
  1.0801,                                 !- Year Escalation 24
  1.0831,                                 !- Year Escalation 25
  1.0831,                                 !- Year Escalation 26
  1.0861,                                 !- Year Escalation 27
  1.0890,                                 !- Year Escalation 28
  1.0920,                                 !- Year Escalation 29
  1.0950;                                 !- Year Escalation 30

Building,
  Building 1,                             !- Name
  0,                                      !- North Axis {deg}
  ,                                       !- Terrain
  ,                                       !- Loads Convergence Tolerance Value
  ,                                       !- Temperature Convergence Tolerance Value {deltaC}
  ,                                       !- Solar Distribution
  ,                                       !- Maximum Number of Warmup Days
  ;                                       !- Minimum Number of Warmup Days

Zone,
  Thermal Zone 1,                         !- Name
  -0,                                     !- Direction of Relative North {deg}
  -47.18,                                 !- X Origin {m}
  -30.68,                                 !- Y Origin {m}
  20,                                     !- Z Origin {m}
  ,                                       !- Type
  ,                                       !- Multiplier
  ,                                       !- Ceiling Height {m}
  ,                                       !- Volume {m3}
  ,                                       !- Floor Area {m2}
  ,                                       !- Zone Inside Convection Algorithm
  ;                                       !- Zone Outside Convection Algorithm

BuildingSurface:Detailed,
  Surface 118,                            !- Name
  Floor,                                  !- Surface Type
  ASHRAE 90.1-2004 ExtWall Mass ClimateZone 6, !- Construction Name
  Thermal Zone 1,                         !- Zone Name
  Surface,                                !- Outside Boundary Condition
  Surface 147,                            !- Outside Boundary Condition Object
  NoSun,                                  !- Sun Exposure
  NoWind,                                 !- Wind Exposure
  ,                                       !- View Factor to Ground
  ,                                       !- Number of Vertices
  0, 0, 0,                                !- X,Y,Z Vertex 1 {m}
  0, 11.155, 0,                           !- X,Y,Z Vertex 2 {m}
  0, 22.31, 0,                            !- X,Y,Z Vertex 3 {m}
  10.135, 22.3866666666667, 0,            !- X,Y,Z Vertex 4 {m}
  20.27, 22.4633333333333, 0,             !- X,Y,Z Vertex 5 {m}
  30.405, 22.54, 0,                       !- X,Y,Z Vertex 6 {m}
  40.54, 22.6166666666667, 0,             !- X,Y,Z Vertex 7 {m}
  50.675, 22.6933333333333, 0,            !- X,Y,Z Vertex 8 {m}
  60.81, 22.77, 0,                        !- X,Y,Z Vertex 9 {m}
  60.9275, 34.25, 0,                      !- X,Y,Z Vertex 10 {m}
  61.045, 45.73, 0,                       !- X,Y,Z Vertex 11 {m}
  61.1625, 57.21, 0,                      !- X,Y,Z Vertex 12 {m}
  61.28, 68.69, 0,                        !- X,Y,Z Vertex 13 {m}
  70.25, 68.69, 0,                        !- X,Y,Z Vertex 14 {m}
  79.22, 68.69, 0,                        !- X,Y,Z Vertex 15 {m}
  79.645, 57.5133333333333, 0,            !- X,Y,Z Vertex 16 {m}
  80.07, 46.3366666666667, 0,             !- X,Y,Z Vertex 17 {m}
  80.495, 35.16, 0,                       !- X,Y,Z Vertex 18 {m}
  80.92, 23.9833333333333, 0,             !- X,Y,Z Vertex 19 {m}
  81.345, 12.8066666666667, 0,            !- X,Y,Z Vertex 20 {m}
  81.77, 1.63, 0,                         !- X,Y,Z Vertex 21 {m}
  71.54875, 1.42625, 0,                   !- X,Y,Z Vertex 22 {m}
  61.3275, 1.2225, 0,                     !- X,Y,Z Vertex 23 {m}
  51.10625, 1.01875, 0,                   !- X,Y,Z Vertex 24 {m}
  40.885, 0.815000000000001, 0,           !- X,Y,Z Vertex 25 {m}
  30.66375, 0.611249999999998, 0,         !- X,Y,Z Vertex 26 {m}
  20.4425, 0.407499999999999, 0,          !- X,Y,Z Vertex 27 {m}
  10.22125, 0.203749999999999, 0;         !- X,Y,Z Vertex 28 {m}

BuildingSurface:Detailed,
  Surface 148,                            !- Name
  Wall,                                   !- Surface Type
  ASHRAE 90.1-2004 ExtWall Mass ClimateZone 6, !- Construction Name
  Thermal Zone 1,                         !- Zone Name
  Outdoors,                               !- Outside Boundary Condition
  ,                                       !- Outside Boundary Condition Object
  SunExposed,                             !- Sun Exposure
  WindExposed,                            !- Wind Exposure
  ,                                       !- View Factor to Ground
  ,                                       !- Number of Vertices
  0, 11.155, 3.75,                        !- X,Y,Z Vertex 1 {m}
  0, 11.155, 0,                           !- X,Y,Z Vertex 2 {m}
  0, 0, 0,                                !- X,Y,Z Vertex 3 {m}
  0, 0, 3.75;                             !- X,Y,Z Vertex 4 {m}

BuildingSurface:Detailed,
  Surface 149,                            !- Name
  Wall,                                   !- Surface Type
  ASHRAE 90.1-2004 ExtWall Mass ClimateZone 6, !- Construction Name
  Thermal Zone 1,                         !- Zone Name
  Outdoors,                               !- Outside Boundary Condition
  ,                                       !- Outside Boundary Condition Object
  SunExposed,                             !- Sun Exposure
  WindExposed,                            !- Wind Exposure
  ,                                       !- View Factor to Ground
  ,                                       !- Number of Vertices
  0, 22.31, 3.75,                         !- X,Y,Z Vertex 1 {m}
  0, 22.31, 0,                            !- X,Y,Z Vertex 2 {m}
  0, 11.155, 0,                           !- X,Y,Z Vertex 3 {m}
  0, 11.155, 3.75;                        !- X,Y,Z Vertex 4 {m}

BuildingSurface:Detailed,
  Surface 150,                            !- Name
  Wall,                                   !- Surface Type
  ASHRAE 90.1-2004 ExtWall Mass ClimateZone 6, !- Construction Name
  Thermal Zone 1,                         !- Zone Name
  Outdoors,                               !- Outside Boundary Condition
  ,                                       !- Outside Boundary Condition Object
  SunExposed,                             !- Sun Exposure
  WindExposed,                            !- Wind Exposure
  ,                                       !- View Factor to Ground
  ,                                       !- Number of Vertices
  10.135, 22.3866666666667, 3.75,         !- X,Y,Z Vertex 1 {m}
  10.135, 22.3866666666667, 0,            !- X,Y,Z Vertex 2 {m}
  0, 22.31, 0,                            !- X,Y,Z Vertex 3 {m}
  0, 22.31, 3.75;                         !- X,Y,Z Vertex 4 {m}

BuildingSurface:Detailed,
  Surface 151,                            !- Name
  Wall,                                   !- Surface Type
  ASHRAE 90.1-2004 ExtWall Mass ClimateZone 6, !- Construction Name
  Thermal Zone 1,                         !- Zone Name
  Outdoors,                               !- Outside Boundary Condition
  ,                                       !- Outside Boundary Condition Object
  SunExposed,                             !- Sun Exposure
  WindExposed,                            !- Wind Exposure
  ,                                       !- View Factor to Ground
  ,                                       !- Number of Vertices
  20.27, 22.4633333333333, 3.75,          !- X,Y,Z Vertex 1 {m}
  20.27, 22.4633333333333, 0,             !- X,Y,Z Vertex 2 {m}
  10.135, 22.3866666666667, 0,            !- X,Y,Z Vertex 3 {m}
  10.135, 22.3866666666667, 3.75;         !- X,Y,Z Vertex 4 {m}

BuildingSurface:Detailed,
  Surface 152,                            !- Name
  Wall,                                   !- Surface Type
  ASHRAE 90.1-2004 ExtWall Mass ClimateZone 6, !- Construction Name
  Thermal Zone 1,                         !- Zone Name
  Outdoors,                               !- Outside Boundary Condition
  ,                                       !- Outside Boundary Condition Object
  SunExposed,                             !- Sun Exposure
  WindExposed,                            !- Wind Exposure
  ,                                       !- View Factor to Ground
  ,                                       !- Number of Vertices
  30.405, 22.54, 3.75,                    !- X,Y,Z Vertex 1 {m}
  30.405, 22.54, 0,                       !- X,Y,Z Vertex 2 {m}
  20.27, 22.4633333333333, 0,             !- X,Y,Z Vertex 3 {m}
  20.27, 22.4633333333333, 3.75;          !- X,Y,Z Vertex 4 {m}

BuildingSurface:Detailed,
  Surface 153,                            !- Name
  Wall,                                   !- Surface Type
  ASHRAE 90.1-2004 ExtWall Mass ClimateZone 6, !- Construction Name
  Thermal Zone 1,                         !- Zone Name
  Outdoors,                               !- Outside Boundary Condition
  ,                                       !- Outside Boundary Condition Object
  SunExposed,                             !- Sun Exposure
  WindExposed,                            !- Wind Exposure
  ,                                       !- View Factor to Ground
  ,                                       !- Number of Vertices
  40.54, 22.6166666666667, 3.75,          !- X,Y,Z Vertex 1 {m}
  40.54, 22.6166666666667, 0,             !- X,Y,Z Vertex 2 {m}
  30.405, 22.54, 0,                       !- X,Y,Z Vertex 3 {m}
  30.405, 22.54, 3.75;                    !- X,Y,Z Vertex 4 {m}

BuildingSurface:Detailed,
  Surface 154,                            !- Name
  Wall,                                   !- Surface Type
  ASHRAE 90.1-2004 ExtWall Mass ClimateZone 6, !- Construction Name
  Thermal Zone 1,                         !- Zone Name
  Outdoors,                               !- Outside Boundary Condition
  ,                                       !- Outside Boundary Condition Object
  SunExposed,                             !- Sun Exposure
  WindExposed,                            !- Wind Exposure
  ,                                       !- View Factor to Ground
  ,                                       !- Number of Vertices
  50.675, 22.6933333333333, 3.75,         !- X,Y,Z Vertex 1 {m}
  50.675, 22.6933333333333, 0,            !- X,Y,Z Vertex 2 {m}
  40.54, 22.6166666666667, 0,             !- X,Y,Z Vertex 3 {m}
  40.54, 22.6166666666667, 3.75;          !- X,Y,Z Vertex 4 {m}

BuildingSurface:Detailed,
  Surface 155,                            !- Name
  Wall,                                   !- Surface Type
  ASHRAE 90.1-2004 ExtWall Mass ClimateZone 6, !- Construction Name
  Thermal Zone 1,                         !- Zone Name
  Outdoors,                               !- Outside Boundary Condition
  ,                                       !- Outside Boundary Condition Object
  SunExposed,                             !- Sun Exposure
  WindExposed,                            !- Wind Exposure
  ,                                       !- View Factor to Ground
  ,                                       !- Number of Vertices
  60.81, 22.77, 3.75,                     !- X,Y,Z Vertex 1 {m}
  60.81, 22.77, 0,                        !- X,Y,Z Vertex 2 {m}
  50.675, 22.6933333333333, 0,            !- X,Y,Z Vertex 3 {m}
  50.675, 22.6933333333333, 3.75;         !- X,Y,Z Vertex 4 {m}

BuildingSurface:Detailed,
  Surface 156,                            !- Name
  Wall,                                   !- Surface Type
  ASHRAE 90.1-2004 ExtWall Mass ClimateZone 6, !- Construction Name
  Thermal Zone 1,                         !- Zone Name
  Outdoors,                               !- Outside Boundary Condition
  ,                                       !- Outside Boundary Condition Object
  SunExposed,                             !- Sun Exposure
  WindExposed,                            !- Wind Exposure
  ,                                       !- View Factor to Ground
  ,                                       !- Number of Vertices
  60.9275, 34.25, 3.75,                   !- X,Y,Z Vertex 1 {m}
  60.9275, 34.25, 0,                      !- X,Y,Z Vertex 2 {m}
  60.81, 22.77, 0,                        !- X,Y,Z Vertex 3 {m}
  60.81, 22.77, 3.75;                     !- X,Y,Z Vertex 4 {m}

BuildingSurface:Detailed,
  Surface 157,                            !- Name
  Wall,                                   !- Surface Type
  ASHRAE 90.1-2004 ExtWall Mass ClimateZone 6, !- Construction Name
  Thermal Zone 1,                         !- Zone Name
  Outdoors,                               !- Outside Boundary Condition
  ,                                       !- Outside Boundary Condition Object
  SunExposed,                             !- Sun Exposure
  WindExposed,                            !- Wind Exposure
  ,                                       !- View Factor to Ground
  ,                                       !- Number of Vertices
  61.045, 45.73, 3.75,                    !- X,Y,Z Vertex 1 {m}
  61.045, 45.73, 0,                       !- X,Y,Z Vertex 2 {m}
  60.9275, 34.25, 0,                      !- X,Y,Z Vertex 3 {m}
  60.9275, 34.25, 3.75;                   !- X,Y,Z Vertex 4 {m}

BuildingSurface:Detailed,
  Surface 158,                            !- Name
  Wall,                                   !- Surface Type
  ASHRAE 90.1-2004 ExtWall Mass ClimateZone 6, !- Construction Name
  Thermal Zone 1,                         !- Zone Name
  Outdoors,                               !- Outside Boundary Condition
  ,                                       !- Outside Boundary Condition Object
  SunExposed,                             !- Sun Exposure
  WindExposed,                            !- Wind Exposure
  ,                                       !- View Factor to Ground
  ,                                       !- Number of Vertices
  61.1625, 57.21, 3.75,                   !- X,Y,Z Vertex 1 {m}
  61.1625, 57.21, 0,                      !- X,Y,Z Vertex 2 {m}
  61.045, 45.73, 0,                       !- X,Y,Z Vertex 3 {m}
  61.045, 45.73, 3.75;                    !- X,Y,Z Vertex 4 {m}

BuildingSurface:Detailed,
  Surface 159,                            !- Name
  Wall,                                   !- Surface Type
  ASHRAE 90.1-2004 ExtWall Mass ClimateZone 6, !- Construction Name
  Thermal Zone 1,                         !- Zone Name
  Outdoors,                               !- Outside Boundary Condition
  ,                                       !- Outside Boundary Condition Object
  SunExposed,                             !- Sun Exposure
  WindExposed,                            !- Wind Exposure
  ,                                       !- View Factor to Ground
  ,                                       !- Number of Vertices
  61.28, 68.69, 3.75,                     !- X,Y,Z Vertex 1 {m}
  61.28, 68.69, 0,                        !- X,Y,Z Vertex 2 {m}
  61.1625, 57.21, 0,                      !- X,Y,Z Vertex 3 {m}
  61.1625, 57.21, 3.75;                   !- X,Y,Z Vertex 4 {m}

BuildingSurface:Detailed,
  Surface 160,                            !- Name
  Wall,                                   !- Surface Type
  ASHRAE 90.1-2004 ExtWall Mass ClimateZone 6, !- Construction Name
  Thermal Zone 1,                         !- Zone Name
  Outdoors,                               !- Outside Boundary Condition
  ,                                       !- Outside Boundary Condition Object
  SunExposed,                             !- Sun Exposure
  WindExposed,                            !- Wind Exposure
  ,                                       !- View Factor to Ground
  ,                                       !- Number of Vertices
  70.25, 68.69, 3.75,                     !- X,Y,Z Vertex 1 {m}
  70.25, 68.69, 0,                        !- X,Y,Z Vertex 2 {m}
  61.28, 68.69, 0,                        !- X,Y,Z Vertex 3 {m}
  61.28, 68.69, 3.75;                     !- X,Y,Z Vertex 4 {m}

BuildingSurface:Detailed,
  Surface 161,                            !- Name
  Wall,                                   !- Surface Type
  ASHRAE 90.1-2004 ExtWall Mass ClimateZone 6, !- Construction Name
  Thermal Zone 1,                         !- Zone Name
  Outdoors,                               !- Outside Boundary Condition
  ,                                       !- Outside Boundary Condition Object
  SunExposed,                             !- Sun Exposure
  WindExposed,                            !- Wind Exposure
  ,                                       !- View Factor to Ground
  ,                                       !- Number of Vertices
  79.22, 68.69, 3.75,                     !- X,Y,Z Vertex 1 {m}
  79.22, 68.69, 0,                        !- X,Y,Z Vertex 2 {m}
  70.25, 68.69, 0,                        !- X,Y,Z Vertex 3 {m}
  70.25, 68.69, 3.75;                     !- X,Y,Z Vertex 4 {m}

BuildingSurface:Detailed,
  Surface 162,                            !- Name
  Wall,                                   !- Surface Type
  ASHRAE 90.1-2004 ExtWall Mass ClimateZone 6, !- Construction Name
  Thermal Zone 1,                         !- Zone Name
  Outdoors,                               !- Outside Boundary Condition
  ,                                       !- Outside Boundary Condition Object
  SunExposed,                             !- Sun Exposure
  WindExposed,                            !- Wind Exposure
  ,                                       !- View Factor to Ground
  ,                                       !- Number of Vertices
  79.645, 57.5133333333333, 3.75,         !- X,Y,Z Vertex 1 {m}
  79.645, 57.5133333333333, 0,            !- X,Y,Z Vertex 2 {m}
  79.22, 68.69, 0,                        !- X,Y,Z Vertex 3 {m}
  79.22, 68.69, 3.75;                     !- X,Y,Z Vertex 4 {m}

BuildingSurface:Detailed,
  Surface 163,                            !- Name
  Wall,                                   !- Surface Type
  ASHRAE 90.1-2004 ExtWall Mass ClimateZone 6, !- Construction Name
  Thermal Zone 1,                         !- Zone Name
  Outdoors,                               !- Outside Boundary Condition
  ,                                       !- Outside Boundary Condition Object
  SunExposed,                             !- Sun Exposure
  WindExposed,                            !- Wind Exposure
  ,                                       !- View Factor to Ground
  ,                                       !- Number of Vertices