
OS:Version,
  {237d919c-143a-4637-884a-c30aefbb3c97}, !- Handle
  1.7.0;                                  !- Version Identifier

OS:BuildingStory,
  {102f79e7-23e4-4acf-a324-0698712bad65}, !- Handle
  Story 1,                                !- Name
  0,                                      !- Nominal Z Coordinate {m}
  3.75,                                   !- Nominal Floor to Floor Height {m}
  ,                                       !- Default Construction Set Name
  ,                                       !- Default Schedule Set Name
  ;                                       !- Group Rendering Name

OS:Space,
  {2fdb69e7-8f6d-4598-bc18-a967c2d5d815}, !- Handle
  0 Core Space,                           !- Name
  ,                                       !- Space Type Name
  ,                                       !- Default Construction Set Name
  ,                                       !- Default Schedule Set Name
  -0,                                     !- Direction of Relative North {deg}
  -55.0553339831846,                      !- X Origin {m}
  11.667261889578,                        !- Y Origin {m}
  0,                                      !- Z Origin {m}
  {102f79e7-23e4-4acf-a324-0698712bad65}, !- Building Story Name
  {baae4ae8-3a48-4d1c-86f1-ea68cd8152cd}; !- Thermal Zone Name

OS:Surface,
  {c90a0c07-2cda-47ec-b0df-db22c2a57aa7}, !- Handle
  Surface 1,                              !- Name
  Floor,                                  !- Surface Type
  ,                                       !- Construction Name
  {2fdb69e7-8f6d-4598-bc18-a967c2d5d815}, !- Space Name
  Ground,                                 !- Outside Boundary Condition
  ,                                       !- Outside Boundary Condition Object
  NoSun,                                  !- Sun Exposure
  NoWind,                                 !- Wind Exposure
  ,                                       !- View Factor to Ground
  ,                                       !- Number of Vertices
  -1.4210854715202e-14, -3.19744231092045e-14, 0, !- X,Y,Z Vertex 1 {m}
  7.82303695842999, 7.82303695842997, 0,  !- X,Y,Z Vertex 2 {m}
  15.64607391686, 15.64607391686, 0,      !- X,Y,Z Vertex 3 {m}
  22.9507556161976, 8.34139221752247, 0,  !- X,Y,Z Vertex 4 {m}
  30.2554373155352, 1.03671051818487, 0,  !- X,Y,Z Vertex 5 {m}
  37.5601190148727, -6.26797118115273, 0, !- X,Y,Z Vertex 6 {m}
  44.8648007142103, -13.5726528804903, 0, !- X,Y,Z Vertex 7 {m}
  52.1694824135479, -20.8773345798279, 0, !- X,Y,Z Vertex 8 {m}
  59.4741641128855, -28.1820162791654, 0, !- X,Y,Z Vertex 9 {m}
  67.5251246043939, -20.131055787657, 0,  !- X,Y,Z Vertex 10 {m}
  75.5760850959023, -12.0800952961486, 0, !- X,Y,Z Vertex 11 {m}
  83.6270455874107, -4.0291348046402, 0,  !- X,Y,Z Vertex 12 {m}
  91.6780060789191, 4.02182568686817, 0,  !- X,Y,Z Vertex 13 {m}
  98.1430277703901, -2.44319600460273, 0, !- X,Y,Z Vertex 14 {m}
  104.608049461861, -8.90821769607368, 0, !- X,Y,Z Vertex 15 {m}
  96.6330634813788, -16.883203676556, 0,  !- X,Y,Z Vertex 16 {m}
  88.6580775008965, -24.8581896570382, 0, !- X,Y,Z Vertex 17 {m}
  80.6830915204142, -32.8331756375205, 0, !- X,Y,Z Vertex 18 {m}
  72.7081055399319, -40.8081616180028, 0, !- X,Y,Z Vertex 19 {m}
  64.7331195594496, -48.783147598485, 0,  !- X,Y,Z Vertex 20 {m}
  56.7581335789674, -56.7581335789673, 0, !- X,Y,Z Vertex 21 {m}
  49.6633668815964, -49.6633668815964, 0, !- X,Y,Z Vertex 22 {m}
  42.5686001842255, -42.5686001842255, 0, !- X,Y,Z Vertex 23 {m}
  35.4738334868546, -35.4738334868546, 0, !- X,Y,Z Vertex 24 {m}
  28.3790667894837, -28.3790667894836, 0, !- X,Y,Z Vertex 25 {m}
  21.2843000921128, -21.2843000921128, 0, !- X,Y,Z Vertex 26 {m}
  14.1895333947419, -14.1895333947418, 0, !- X,Y,Z Vertex 27 {m}
  7.09476669737089, -7.09476669737092, 0; !- X,Y,Z Vertex 28 {m}

OS:Surface,
  {4a11c3ea-e212-46d8-b1b2-cbf1561bf958}, !- Handle
  Surface 2,                              !- Name
  Wall,                                   !- Surface Type
  ,                                       !- Construction Name
  {2fdb69e7-8f6d-4598-bc18-a967c2d5d815}, !- Space Name
  Outdoors,                               !- Outside Boundary Condition
  ,                                       !- Outside Boundary Condition Object
  SunExposed,                             !- Sun Exposure
  WindExposed,                            !- Wind Exposure
  ,                                       !- View Factor to Ground
  ,                                       !- Number of Vertices
  7.82303695842999, 7.82303695842997, 3.75, !- X,Y,Z Vertex 1 {m}
  7.82303695842999, 7.82303695842997, 0,  !- X,Y,Z Vertex 2 {m}
  -1.4210854715202e-14, -3.19744231092045e-14, 0, !- X,Y,Z Vertex 3 {m}
  -1.4210854715202e-14, -3.19744231092045e-14, 3.75; !- X,Y,Z Vertex 4 {m}

OS:Surface,
  {cbd31784-d437-4240-978f-786d4faac768}, !- Handle
  Surface 3,                              !- Name
  Wall,                                   !- Surface Type
  ,                                       !- Construction Name
  {2fdb69e7-8f6d-4598-bc18-a967c2d5d815}, !- Space Name
  Outdoors,                               !- Outside Boundary Condition
  ,                                       !- Outside Boundary Condition Object
  SunExposed,                             !- Sun Exposure
  WindExposed,                            !- Wind Exposure
  ,                                       !- View Factor to Ground
  ,                                       !- Number of Vertices
  15.64607391686, 15.64607391686, 3.75,   !- X,Y,Z Vertex 1 {m}
  15.64607391686, 15.64607391686, 0,      !- X,Y,Z Vertex 2 {m}
  7.82303695842999, 7.82303695842997, 0,  !- X,Y,Z Vertex 3 {m}
  7.82303695842999, 7.82303695842997, 3.75; !- X,Y,Z Vertex 4 {m}

OS:Surface,
  {7e6325f8-48ce-4a08-ad2b-6cc72d50b8a4}, !- Handle
  Surface 4,                              !- Name
  Wall,                                   !- Surface Type
  ,                                       !- Construction Name
  {2fdb69e7-8f6d-4598-bc18-a967c2d5d815}, !- Space Name
  Outdoors,                               !- Outside Boundary Condition
  ,                                       !- Outside Boundary Condition Object
  SunExposed,                             !- Sun Exposure
  WindExposed,                            !- Wind Exposure
  ,                                       !- View Factor to Ground
  ,                                       !- Number of Vertices
  22.9507556161976, 8.34139221752247, 3.75, !- X,Y,Z Vertex 1 {m}
  22.9507556161976, 8.34139221752247, 0,  !- X,Y,Z Vertex 2 {m}
  15.64607391686, 15.64607391686, 0,      !- X,Y,Z Vertex 3 {m}
  15.64607391686, 15.64607391686, 3.75;   !- X,Y,Z Vertex 4 {m}

OS:Surface,
  {70e18c5e-6e1e-4df5-87d2-51f4091a3f28}, !- Handle
  Surface 5,                              !- Name
  Wall,                                   !- Surface Type
  ,                                       !- Construction Name
  {2fdb69e7-8f6d-4598-bc18-a967c2d5d815}, !- Space Name
  Outdoors,                               !- Outside Boundary Condition
  ,                                       !- Outside Boundary Condition Object
  SunExposed,                             !- Sun Exposure
  WindExposed,                            !- Wind Exposure
  ,                                       !- View Factor to Ground
  ,                                       !- Number of Vertices
  30.2554373155352, 1.03671051818487, 3.75, !- X,Y,Z Vertex 1 {m}
  30.2554373155352, 1.03671051818487, 0,  !- X,Y,Z Vertex 2 {m}
  22.9507556161976, 8.34139221752247, 0,  !- X,Y,Z Vertex 3 {m}
  22.9507556161976, 8.34139221752247, 3.75; !- X,Y,Z Vertex 4 {m}

OS:Surface,
  {fffac38e-59c7-4456-b3fe-a0305397c29c}, !- Handle
  Surface 6,                              !- Name
  Wall,                                   !- Surface Type
  ,                                       !- Construction Name
  {2fdb69e7-8f6d-4598-bc18-a967c2d5d815}, !- Space Name
  Outdoors,                               !- Outside Boundary Condition
  ,                                       !- Outside Boundary Condition Object
  SunExposed,                             !- Sun Exposure
  WindExposed,                            !- Wind Exposure
  ,                                       !- View Factor to Ground
  ,                                       !- Number of Vertices
  37.5601190148727, -6.26797118115273, 3.75, !- X,Y,Z Vertex 1 {m}
  37.5601190148727, -6.26797118115273, 0, !- X,Y,Z Vertex 2 {m}
  30.2554373155352, 1.03671051818487, 0,  !- X,Y,Z Vertex 3 {m}
  30.2554373155352, 1.03671051818487, 3.75; !- X,Y,Z Vertex 4 {m}

OS:Surface,
  {95c766c0-5f56-485f-a83e-e31dbfdb4bb0}, !- Handle
  Surface 7,                              !- Name
  Wall,                                   !- Surface Type
  ,                                       !- Construction Name
  {2fdb69e7-8f6d-4598-bc18-a967c2d5d815}, !- Space Name
  Outdoors,                               !- Outside Boundary Condition
  ,                                       !- Outside Boundary Condition Object
  SunExposed,                             !- Sun Exposure
  WindExposed,                            !- Wind Exposure
  ,                                       !- View Factor to Ground
  ,                                       !- Number of Vertices
  44.8648007142103, -13.5726528804903, 3.75, !- X,Y,Z Vertex 1 {m}
  44.8648007142103, -13.5726528804903, 0, !- X,Y,Z Vertex 2 {m}
  37.5601190148727, -6.26797118115273, 0, !- X,Y,Z Vertex 3 {m}
  37.5601190148727, -6.26797118115273, 3.75; !- X,Y,Z Vertex 4 {m}

OS:Surface,
  {8a91ab6c-9f67-4178-8da6-0404b69e57d6}, !- Handle
  Surface 8,                              !- Name
  Wall,                                   !- Surface Type
  ,                                       !- Construction Name
  {2fdb69e7-8f6d-4598-bc18-a967c2d5d815}, !- Space Name
  Outdoors,                               !- Outside Boundary Condition
  ,                                       !- Outside Boundary Condition Object
  SunExposed,                             !- Sun Exposure
  WindExposed,                            !- Wind Exposure
  ,                                       !- View Factor to Ground
  ,                                       !- Number of Vertices
  52.1694824135479, -20.8773345798279, 3.75, !- X,Y,Z Vertex 1 {m}
  52.1694824135479, -20.8773345798279, 0, !- X,Y,Z Vertex 2 {m}
  44.8648007142103, -13.5726528804903, 0, !- X,Y,Z Vertex 3 {m}
  44.8648007142103, -13.5726528804903, 3.75; !- X,Y,Z Vertex 4 {m}

OS:Surface,
  {13a059c5-9abd-4200-a3bc-d0888b1c71c6}, !- Handle
  Surface 9,                              !- Name
  Wall,                                   !- Surface Type
  ,                                       !- Construction Name
  {2fdb69e7-8f6d-4598-bc18-a967c2d5d815}, !- Space Name
  Outdoors,                               !- Outside Boundary Condition
  ,                                       !- Outside Boundary Condition Object
  SunExposed,                             !- Sun Exposure
  WindExposed,                            !- Wind Exposure
  ,                                       !- View Factor to Ground
  ,                                       !- Number of Vertices
  59.4741641128855, -28.1820162791654, 3.75, !- X,Y,Z Vertex 1 {m}
  59.4741641128855, -28.1820162791654, 0, !- X,Y,Z Vertex 2 {m}
  52.1694824135479, -20.8773345798279, 0, !- X,Y,Z Vertex 3 {m}
  52.1694824135479, -20.8773345798279, 3.75; !- X,Y,Z Vertex 4 {m}

OS:Surface,
  {e217dbe7-ca17-4b81-95b7-8f6deadaac3c}, !- Handle
  Surface 10,                             !- Name
  Wall,                                   !- Surface Type
  ,                                       !- Construction Name
  {2fdb69e7-8f6d-4598-bc18-a967c2d5d815}, !- Space Name
  Outdoors,                               !- Outside Boundary Condition
  ,                                       !- Outside Boundary Condition Object
  SunExposed,                             !- Sun Exposure
  WindExposed,                            !- Wind Exposure
  ,                                       !- View Factor to Ground
  ,                                       !- Number of Vertices
  67.5251246043939, -20.131055787657, 3.75, !- X,Y,Z Vertex 1 {m}
  67.5251246043939, -20.131055787657, 0,  !- X,Y,Z Vertex 2 {m}
  59.4741641128855, -28.1820162791654, 0, !- X,Y,Z Vertex 3 {m}
  59.4741641128855, -28.1820162791654, 3.75; !- X,Y,Z Vertex 4 {m}

OS:Surface,
  {a526ef49-d105-4dcd-a6a0-a2510f6f0b60}, !- Handle
  Surface 11,                             !- Name
  Wall,                                   !- Surface Type
  ,                                       !- Construction Name
  {2fdb69e7-8f6d-4598-bc18-a967c2d5d815}, !- Space Name
  Outdoors,                               !- Outside Boundary Condition
  ,                                       !- Outside Boundary Condition Object
  SunExposed,                             !- Sun Exposure
  WindExposed,                            !- Wind Exposure
  ,                                       !- View Factor to Ground
  ,                                       !- Number of Vertices
  75.5760850959023, -12.0800952961486, 3.75, !- X,Y,Z Vertex 1 {m}
  75.5760850959023, -12.0800952961486, 0, !- X,Y,Z Vertex 2 {m}
  67.5251246043939, -20.131055787657, 0,  !- X,Y,Z Vertex 3 {m}
  67.5251246043939, -20.131055787657, 3.75; !- X,Y,Z Vertex 4 {m}

OS:Surface,
  {134756d6-b71d-4d5a-aab0-d69d283fddd8}, !- Handle
  Surface 12,                             !- Name
  Wall,                                   !- Surface Type
  ,                                       !- Construction Name
  {2fdb69e7-8f6d-4598-bc18-a967c2d5d815}, !- Space Name
  Outdoors,                               !- Outside Boundary Condition
  ,                                       !- Outside Boundary Condition Object
  SunExposed,                             !- Sun Exposure
  WindExposed,                            !- Wind Exposure
  ,                                       !- View Factor to Ground
  ,                                       !- Number of Vertices
  83.6270455874107, -4.0291348046402, 3.75, !- X,Y,Z Vertex 1 {m}
  83.6270455874107, -4.0291348046402, 0,  !- X,Y,Z Vertex 2 {m}
  75.5760850959023, -12.0800952961486, 0, !- X,Y,Z Vertex 3 {m}
  75.5760850959023, -12.0800952961486, 3.75; !- X,Y,Z Vertex 4 {m}

OS:Surface,
  {ae89fa29-7f03-4816-a060-39685cff18a0}, !- Handle
  Surface 13,                             !- Name
  Wall,                                   !- Surface Type
  ,                                       !- Construction Name
  {2fdb69e7-8f6d-4598-bc18-a967c2d5d815}, !- Space Name
  Outdoors,                               !- Outside Boundary Condition
  ,                                       !- Outside Boundary Condition Object
  SunExposed,                             !- Sun Exposure
  WindExposed,                            !- Wind Exposure
  ,                                       !- View Factor to Ground
  ,                                       !- Number of Vertices
  91.6780060789191, 4.02182568686817, 3.75, !- X,Y,Z Vertex 1 {m}
  91.6780060789191, 4.02182568686817, 0,  !- X,Y,Z Vertex 2 {m}
  83.6270455874107, -4.0291348046402, 0,  !- X,Y,Z Vertex 3 {m}
  83.6270455874107, -4.0291348046402, 3.75; !- X,Y,Z Vertex 4 {m}

OS:Surface,
  {13170650-b1fd-4cda-bca6-e03e72c4b8bb}, !- Handle
  Surface 14,                             !- Name
  Wall,                                   !- Surface Type
  ,                                       !- Construction Name
  {2fdb69e7-8f6d-4598-bc18-a967c2d5d815}, !- Space Name
  Outdoors,                               !- Outside Boundary Condition
  ,                                       !- Outside Boundary Condition Object
  SunExposed,                             !- Sun Exposure
  WindExposed,                            !- Wind Exposure
  ,                                       !- View Factor to Ground
  ,                                       !- Number of Vertices
  98.1430277703901, -2.44319600460273, 3.75, !- X,Y,Z Vertex 1 {m}
  98.1430277703901, -2.44319600460273, 0, !- X,Y,Z Vertex 2 {m}
  91.6780060789191, 4.02182568686817, 0,  !- X,Y,Z Vertex 3 {m}
  91.6780060789191, 4.02182568686817, 3.75; !- X,Y,Z Vertex 4 {m}

OS:Surface,
  {14997bb9-a3fb-4c50-88a9-bf77754422cd}, !- Handle
  Surface 15,                             !- Name
  Wall,                                   !- Surface Type
  ,                                       !- Construction Name
  {2fdb69e7-8f6d-4598-bc18-a967c2d5d815}, !- Space Name
  Outdoors,                               !- Outside Boundary Condition
  ,                                       !- Outside Boundary Condition Object
  SunExposed,                             !- Sun Exposure
  WindExposed,                            !- Wind Exposure
  ,                                       !- View Factor to Ground
  ,                                       !- Number of Vertices
  104.608049461861, -8.90821769607368, 3.75, !- X,Y,Z Vertex 1 {m}
  104.608049461861, -8.90821769607368, 0, !- X,Y,Z Vertex 2 {m}
  98.1430277703901, -2.44319600460273, 0, !- X,Y,Z Vertex 3 {m}
  98.1430277703901, -2.44319600460273, 3.75; !- X,Y,Z Vertex 4 {m}

OS:Surface,
  {d34ec676-86b7-44f8-8a50-562acd74ca09}, !- Handle
  Surface 16,                             !- Name
  Wall,                                   !- Surface Type
  ,                                       !- Construction Name
  {2fdb69e7-8f6d-4598-bc18-a967c2d5d815}, !- Space Name
  Outdoors,                               !- Outside Boundary Condition
  ,                                       !- Outside Boundary Condition Object
  SunExposed,                             !- Sun Exposure
  WindExposed,                            !- Wind Exposure
  ,                                       !- View Factor to Ground
  ,                                       !- Number of Vertices
  96.6330634813788, -16.883203676556, 3.75, !- X,Y,Z Vertex 1 {m}
  96.6330634813788, -16.883203676556, 0,  !- X,Y,Z Vertex 2 {m}
  104.608049461861, -8.90821769607368, 0, !- X,Y,Z Vertex 3 {m}
  104.608049461861, -8.90821769607368, 3.75; !- X,Y,Z Vertex 4 {m}

OS:Surface,
  {675fab1d-cdd1-4a0e-b296-563e57e3190b}, !- Handle
  Surface 17,                             !- Name
  Wall,                                   !- Surface Type
  ,                                       !- Construction Name
  {2fdb69e7-8f6d-4598-bc18-a967c2d5d815}, !- Space Name
  Outdoors,                               !- Outside Boundary Condition
  ,                                       !- Outside Boundary Condition Object
  SunExposed,                             !- Sun Exposure
  WindExposed,                            !- Wind Exposure
  ,                                       !- View Factor to Ground
  ,                                       !- Number of Vertices
  88.6580775008965, -24.8581896570382, 3.75, !- X,Y,Z Vertex 1 {m}
  88.6580775008965, -24.8581896570382, 0, !- X,Y,Z Vertex 2 {m}
  96.6330634813788, -16.883203676556, 0,  !- X,Y,Z Vertex 3 {m}
  96.6330634813788, -16.883203676556, 3.75; !- X,Y,Z Vertex 4 {m}

OS:Surface,
  {adee6145-ed21-4f55-9b0e-81fe34a33f7a}, !- Handle
  Surface 18,                             !- Name
  Wall,                                   !- Surface Type
  ,                                       !- Construction Name
  {2fdb69e7-8f6d-4598-bc18-a967c2d5d815}, !- Space Name
  Outdoors,                               !- Outside Boundary Condition
  ,                                       !- Outside Boundary Condition Object
  SunExposed,                             !- Sun Exposure
  WindExposed,                            !- Wind Exposure
  ,                                       !- View Factor to Ground
  ,                                       !- Number of Vertices
  80.6830915204142, -32.8331756375205, 3.75, !- X,Y,Z Vertex 1 {m}
  80.6830915204142, -32.8331756375205, 0, !- X,Y,Z Vertex 2 {m}
  88.6580775008965, -24.8581896570382, 0, !- X,Y,Z Vertex 3 {m}
  88.6580775008965, -24.8581896570382, 3.75; !- X,Y,Z Vertex 4 {m}

OS:Surface,
  {0655506f-707d-4b55-a9da-9a8f6a10ac09}, !- Handle
  Surface 19,                             !- Name
  Wall,                                   !- Surface Type
  ,                                       !- Construction Name
  {2fdb69e7-8f6d-4598-bc18-a967c2d5d815}, !- Space Name
  Outdoors,                               !- Outside Boundary Condition
  ,                                       !- Outside Boundary Condition Object
  SunExposed,                             !- Sun Exposure
  WindExposed,                            !- Wind Exposure
  ,                                       !- View Factor to Ground
  ,                                       !- Number of Vertices
  72.7081055399319, -40.8081616180028, 3.75, !- X,Y,Z Vertex 1 {m}
  72.7081055399319, -40.8081616180028, 0, !- X,Y,Z Vertex 2 {m}
  80.6830915204142, -32.8331756375205, 0, !- X,Y,Z Vertex 3 {m}
  80.6830915204142, -32.8331756375205, 3.75; !- X,Y,Z Vertex 4 {m}

OS:Surface,
  {02028fd2-d5e9-4db7-8384-866c73bcf73c}, !- Handle
  Surface 20,                             !- Name
  Wall,                                   !- Surface Type
  ,                                       !- Construction Name
  {2fdb69e7-8f6d-4598-bc18-a967c2d5d815}, !- Space Name
  Outdoors,                               !- Outside Boundary Condition
  ,                                       !- Outside Boundary Condition Object
  SunExposed,                             !- Sun Exposure
  WindExposed,                            !- Wind Exposure
  ,                                       !- View Factor to Ground
  ,                                       !- Number of Vertices
  64.7331195594496, -48.783147598485, 3.75, !- X,Y,Z Vertex 1 {m}
  64.7331195594496, -48.783147598485, 0,  !- X,Y,Z Vertex 2 {m}
  72.7081055399319, -40.8081616180028, 0, !- X,Y,Z Vertex 3 {m}
  72.7081055399319, -40.8081616180028, 3.75; !- X,Y,Z Vertex 4 {m}

OS:Surface,
  {711c2be8-56ad-4ce8-b057-41563ff29089}, !- Handle
  Surface 21,                             !- Name
  Wall,                                   !- Surface Type
  ,                                       !- Construction Name
  {2fdb69e7-8f6d-4598-bc18-a967c2d5d815}, !- Space Name
  Outdoors,                               !- Outside Boundary Condition
  ,                                       !- Outside Boundary Condition Object
  SunExposed,                             !- Sun Exposure
  WindExposed,                            !- Wind Exposure
  ,                                       !- View Factor to Ground
  ,                                       !- Number of Vertices
  56.7581335789674, -56.7581335789673, 3.75, !- X,Y,Z Vertex 1 {m}
  56.7581335789674, -56.7581335789673, 0, !- X,Y,Z Vertex 2 {m}
  64.7331195594496, -48.783147598485, 0,  !- X,Y,Z Vertex 3 {m}
  64.7331195594496, -48.783147598485, 3.75; !- X,Y,Z Vertex 4 {m}

OS:Surface,
  {d5d86f75-ad4b-4820-9171-aae8fb7dc17b}, !- Handle
  Surface 22,                             !- Name
  Wall,                                   !- Surface Type
  ,                                       !- Construction Name
  {2fdb69e7-8f6d-4598-bc18-a967c2d5d815}, !- Space Name
  Outdoors,                               !- Outside Boundary Condition
  ,                                       !- Outside Boundary Condition Object
  SunExposed,                             !- Sun Exposure
  WindExposed,                            !- Wind Exposure
  ,                                       !- View Factor to Ground
  ,                                       !- Number of Vertices
  49.6633668815964, -49.6633668815964, 3.75, !- X,Y,Z Vertex 1 {m}
  49.6633668815964, -49.6633668815964, 0, !- X,Y,Z Vertex 2 {m}
  56.7581335789674, -56.7581335789673, 0, !- X,Y,Z Vertex 3 {m}
  56.7581335789674, -56.7581335789673, 3.75; !- X,Y,Z Vertex 4 {m}

OS:Surface,
  {2517ed67-0474-41ff-b845-efd5bd282d99}, !- Handle
  Surface 23,                             !- Name
  Wall,                                   !- Surface Type
  ,                                       !- Construction Name
  {2fdb69e7-8f6d-4598-bc18-a967c2d5d815}, !- Space Name
  Outdoors,                               !- Outside Boundary Condition
  ,                                       !- Outside Boundary Condition Object
  SunExposed,                             !- Sun Exposure
  WindExposed,                            !- Wind Exposure
  ,                                       !- View Factor to Ground
  ,                                       !- Number of Vertices
  42.5686001842255, -42.5686001842255, 3.75, !- X,Y,Z Vertex 1 {m}
  42.5686001842255, -42.5686001842255, 0, !- X,Y,Z Vertex 2 {m}
  49.6633668815964, -49.6633668815964, 0, !- X,Y,Z Vertex 3 {m}
  49.6633668815964, -49.6633668815964, 3.75; !- X,Y,Z Vertex 4 {m}

OS:Surface,
  {c734583a-f880-42e4-b0f8-634b22b7d548}, !- Handle
  Surface 24,                             !- Name
  Wall,                                   !- Surface Type
  ,                                       !- Construction Name
  {2fdb69e7-8f6d-4598-bc18-a967c2d5d815}, !- Space Name
  Outdoors,                               !- Outside Boundary Condition
  ,                                       !- Outside Boundary Condition Object
  SunExposed,                             !- Sun Exposure
  WindExposed,                            !- Wind Exposure
  ,                                       !- View Factor to Ground
  ,                                       !- Number of Vertices
  35.4738334868546, -35.4738334868546, 3.75, !- X,Y,Z Vertex 1 {m}
  35.4738334868546, -35.4738334868546, 0, !- X,Y,Z Vertex 2 {m}
  42.5686001842255, -42.5686001842255, 0, !- X,Y,Z Vertex 3 {m}
  42.5686001842255, -42.5686001842255, 3.75; !- X,Y,Z Vertex 4 {m}

OS:Surface,
  {30e2fbfa-7a73-4fef-8dbc-fff35985b520}, !- Handle
  Surface 25,                             !- Name
  Wall,                                   !- Surface Type
  ,                                       !- Construction Name
  {2fdb69e7-8f6d-4598-bc18-a967c2d5d815}, !- Space Name
  Outdoors,                               !- Outside Boundary Condition
  ,                                       !- Outside Boundary Condition Object
  SunExposed,                             !- Sun Exposure
  WindExposed,                            !- Wind Exposure
  ,                                       !- View Factor to Ground
  ,                                       !- Number of Vertices
  28.3790667894837, -28.3790667894836, 3.75, !- X,Y,Z Vertex 1 {m}
  28.3790667894837, -28.3790667894836, 0, !- X,Y,Z Vertex 2 {m}
  35.4738334868546, -35.4738334868546, 0, !- X,Y,Z Vertex 3 {m}
  35.4738334868546, -35.4738334868546, 3.75; !- X,Y,Z Vertex 4 {m}

OS:Surface,
  {8488b39d-96dd-4c94-b558-ce4fa320a770}, !- Handle
  Surface 26,                             !- Name
  Wall,                                   !- Surface Type
  ,                                       !- Construction Name
  {2fdb69e7-8f6d-4598-bc18-a967c2d5d815}, !- Space Name
  Outdoors,                               !- Outside Boundary Condition
  ,                                       !- Outside Boundary Condition Object
  SunExposed,                             !- Sun Exposure
  WindExposed,                            !- Wind Exposure
  ,                                       !- View Factor to Ground
  ,                                       !- Number of Vertices
  21.2843000921128, -21.2843000921128, 3.75, !- X,Y,Z Vertex 1 {m}
  21.2843000921128, -21.2843000921128, 0, !- X,Y,Z Vertex 2 {m}
  28.3790667894837, -28.3790667894836, 0, !- X,Y,Z Vertex 3 {m}
  28.3790667894837, -28.3790667894836, 3.75; !- X,Y,Z Vertex 4 {m}

OS:Surface,
  {a31c6930-99ad-4c3c-a0b8-7f862f6bf4d6}, !- Handle
  Surface 27,                             !- Name
  Wall,                                   !- Surface Type
  ,                                       !- Construction Name
  {2fdb69e7-8f6d-4598-bc18-a967c2d5d815}, !- Space Name
  Outdoors,                               !- Outside Boundary Condition
  ,                                       !- Outside Boundary Condition Object
  SunExposed,                             !- Sun Exposure
  WindExposed,                            !- Wind Exposure
  ,                                       !- View Factor to Ground
  ,                                       !- Number of Vertices
  14.1895333947419, -14.1895333947418, 3.75, !- X,Y,Z Vertex 1 {m}
  14.1895333947419, -14.1895333947418, 0, !- X,Y,Z Vertex 2 {m}
  21.2843000921128, -21.2843000921128, 0, !- X,Y,Z Vertex 3 {m}
  21.2843000921128, -21.2843000921128, 3.75; !- X,Y,Z Vertex 4 {m}

OS:Surface,
  {5598233d-c392-4b0b-88a2-f928db5959c0}, !- Handle
  Surface 28,                             !- Name
  Wall,                                   !- Surface Type
  ,                                       !- Construction Name
  {2fdb69e7-8f6d-4598-bc18-a967c2d5d815}, !- Space Name
  Outdoors,                               !- Outside Boundary Condition
  ,                                       !- Outside Boundary Condition Object
  SunExposed,                             !- Sun Exposure
  WindExposed,                            !- Wind Exposure
  ,                                       !- View Factor to Ground
  ,                                       !- Number of Vertices
  7.09476669737089, -7.09476669737092, 3.75, !- X,Y,Z Vertex 1 {m}
  7.09476669737089, -7.09476669737092, 0, !- X,Y,Z Vertex 2 {m}
  14.1895333947419, -14.1895333947418, 0, !- X,Y,Z Vertex 3 {m}
  14.1895333947419, -14.1895333947418, 3.75; !- X,Y,Z Vertex 4 {m}

OS:Surface,
  {b8804c18-e77e-4877-a150-a2e4850a24e3}, !- Handle
  Surface 29,                             !- Name
  Wall,                                   !- Surface Type
  ,                                       !- Construction Name
  {2fdb69e7-8f6d-4598-bc18-a967c2d5d815}, !- Space Name
  Outdoors,                               !- Outside Boundary Condition
  ,                                       !- Outside Boundary Condition Object