
Version,
  8.2;                                    !- Version Identifier

LifeCycleCost:Parameters,
  {5c283ccb-879d-49ba-96a2-91c119f7ce76}, !- Name
  EndOfYear,                              !- Discounting Convention
  ConstantDollar,                         !- Inflation Approach
  0.03,                                   !- Real Discount Rate
  ,                                       !- Nominal Discount Rate
  ,                                       !- Inflation
  ,                                       !- Base Date Month
  2011,                                   !- Base Date Year
  ,                                       !- Service Date Month
  2011,                                   !- Service Date Year
  25,                                     !- Length of Study Period in Years
  ,                                       !- Tax rate
  None;                                   !- Depreciation Method

LifeCycleCost:UsePriceEscalation,
  U.S. Avg  Commercial-Electricity,       !- Name
  Electricity,                            !- Resource
  2011,                                   !- Escalation Start Year
  January,                                !- Escalation Start Month
  0.9838,                                 !- Year Escalation 1
  0.9730,                                 !- Year Escalation 2
  0.9632,                                 !- Year Escalation 3
  0.9611,                                 !- Year Escalation 4
  0.9571,                                 !- Year Escalation 5
  0.9553,                                 !- Year Escalation 6
  0.9539,                                 !- Year Escalation 7
  0.9521,                                 !- Year Escalation 8
  0.9546,                                 !- Year Escalation 9
  0.9550,                                 !- Year Escalation 10
  0.9553,                                 !- Year Escalation 11
  0.9564,                                 !- Year Escalation 12
  0.9575,                                 !- Year Escalation 13
  0.9596,                                 !- Year Escalation 14
  0.9618,                                 !- Year Escalation 15
  0.9614,                                 !- Year Escalation 16
  0.9618,                                 !- Year Escalation 17
  0.9618,                                 !- Year Escalation 18
  0.9593,                                 !- Year Escalation 19
  0.9589,                                 !- Year Escalation 20
  0.9607,                                 !- Year Escalation 21
  0.9625,                                 !- Year Escalation 22
  0.9650,                                 !- Year Escalation 23
  0.9708,                                 !- Year Escalation 24
  0.9751,                                 !- Year Escalation 25
  0.9762,                                 !- Year Escalation 26
  0.9766,                                 !- Year Escalation 27
  0.9766,                                 !- Year Escalation 28
  0.9769,                                 !- Year Escalation 29
  0.9773;                                 !- Year Escalation 30

LifeCycleCost:UsePriceEscalation,
  U.S. Avg  Commercial-Distillate Oil,    !- Name
  FuelOil#1,                              !- Resource
  2011,                                   !- Escalation Start Year
  January,                                !- Escalation Start Month
  0.9714,                                 !- Year Escalation 1
  0.9730,                                 !- Year Escalation 2
  0.9942,                                 !- Year Escalation 3
  1.0164,                                 !- Year Escalation 4
  1.0541,                                 !- Year Escalation 5
  1.0928,                                 !- Year Escalation 6
  1.1267,                                 !- Year Escalation 7
  1.1580,                                 !- Year Escalation 8
  1.1792,                                 !- Year Escalation 9
  1.1967,                                 !- Year Escalation 10
  1.2200,                                 !- Year Escalation 11
  1.2333,                                 !- Year Escalation 12
  1.2566,                                 !- Year Escalation 13
  1.2709,                                 !- Year Escalation 14
  1.2826,                                 !- Year Escalation 15
  1.2985,                                 !- Year Escalation 16
  1.3102,                                 !- Year Escalation 17
  1.3250,                                 !- Year Escalation 18
  1.3261,                                 !- Year Escalation 19
  1.3282,                                 !- Year Escalation 20
  1.3324,                                 !- Year Escalation 21
  1.3356,                                 !- Year Escalation 22
  1.3431,                                 !- Year Escalation 23
  1.3510,                                 !- Year Escalation 24
  1.3568,                                 !- Year Escalation 25
  1.3606,                                 !- Year Escalation 26
  1.3637,                                 !- Year Escalation 27
  1.3674,                                 !- Year Escalation 28
  1.3706,                                 !- Year Escalation 29
  1.3743;                                 !- Year Escalation 30

LifeCycleCost:UsePriceEscalation,
  U.S. Avg  Commercial-Residual Oil,      !- Name
  FuelOil#2,                              !- Resource
  2011,                                   !- Escalation Start Year
  January,                                !- Escalation Start Month
  0.8469,                                 !- Year Escalation 1
  0.8257,                                 !- Year Escalation 2
  0.8681,                                 !- Year Escalation 3
  0.8988,                                 !- Year Escalation 4
  0.9289,                                 !- Year Escalation 5
  0.9604,                                 !- Year Escalation 6
  0.9897,                                 !- Year Escalation 7
  1.0075,                                 !- Year Escalation 8
  1.0314,                                 !- Year Escalation 9
  1.0554,                                 !- Year Escalation 10
  1.0861,                                 !- Year Escalation 11
  1.1278,                                 !- Year Escalation 12
  1.1497,                                 !- Year Escalation 13
  1.1620,                                 !- Year Escalation 14
  1.1743,                                 !- Year Escalation 15
  1.1852,                                 !- Year Escalation 16
  1.1948,                                 !- Year Escalation 17
  1.2037,                                 !- Year Escalation 18
  1.2071,                                 !- Year Escalation 19
  1.2119,                                 !- Year Escalation 20
  1.2139,                                 !- Year Escalation 21
  1.2194,                                 !- Year Escalation 22
  1.2276,                                 !- Year Escalation 23
  1.2365,                                 !- Year Escalation 24
  1.2420,                                 !- Year Escalation 25
  1.2461,                                 !- Year Escalation 26
  1.2509,                                 !- Year Escalation 27
  1.2550,                                 !- Year Escalation 28
  1.2591,                                 !- Year Escalation 29
  1.2638;                                 !- Year Escalation 30

LifeCycleCost:UsePriceEscalation,
  U.S. Avg  Commercial-Natural gas,       !- Name
  NaturalGas,                             !- Resource
  2011,                                   !- Escalation Start Year
  January,                                !- Escalation Start Month
  0.9823,                                 !- Year Escalation 1
  0.9557,                                 !- Year Escalation 2
  0.9279,                                 !- Year Escalation 3
  0.9257,                                 !- Year Escalation 4
  0.9346,                                 !- Year Escalation 5
  0.9412,                                 !- Year Escalation 6
  0.9512,                                 !- Year Escalation 7
  0.9645,                                 !- Year Escalation 8
  0.9856,                                 !- Year Escalation 9
  1.0067,                                 !- Year Escalation 10
  1.0222,                                 !- Year Escalation 11
  1.0410,                                 !- Year Escalation 12
  1.0610,                                 !- Year Escalation 13
  1.0787,                                 !- Year Escalation 14
  1.0942,                                 !- Year Escalation 15
  1.1098,                                 !- Year Escalation 16
  1.1220,                                 !- Year Escalation 17
  1.1308,                                 !- Year Escalation 18
  1.1386,                                 !- Year Escalation 19
  1.1486,                                 !- Year Escalation 20
  1.1619,                                 !- Year Escalation 21
  1.1763,                                 !- Year Escalation 22
  1.1918,                                 !- Year Escalation 23
  1.2118,                                 !- Year Escalation 24
  1.2284,                                 !- Year Escalation 25
  1.2439,                                 !- Year Escalation 26
  1.2605,                                 !- Year Escalation 27
  1.2772,                                 !- Year Escalation 28
  1.2938,                                 !- Year Escalation 29
  1.3115;                                 !- Year Escalation 30

LifeCycleCost:UsePriceEscalation,
  U.S. Avg  Commercial-Coal,              !- Name
  Coal,                                   !- Resource
  2011,                                   !- Escalation Start Year
  January,                                !- Escalation Start Month
  0.9970,                                 !- Year Escalation 1
  1.0089,                                 !- Year Escalation 2
  1.0089,                                 !- Year Escalation 3
  0.9941,                                 !- Year Escalation 4
  0.9941,                                 !- Year Escalation 5
  1.0000,                                 !- Year Escalation 6
  1.0030,                                 !- Year Escalation 7
  1.0059,                                 !- Year Escalation 8
  1.0089,                                 !- Year Escalation 9
  1.0119,                                 !- Year Escalation 10
  1.0148,                                 !- Year Escalation 11
  1.0178,                                 !- Year Escalation 12
  1.0208,                                 !- Year Escalation 13
  1.0267,                                 !- Year Escalation 14
  1.0297,                                 !- Year Escalation 15
  1.0356,                                 !- Year Escalation 16
  1.0415,                                 !- Year Escalation 17
  1.0534,                                 !- Year Escalation 18
  1.0564,                                 !- Year Escalation 19
  1.0593,                                 !- Year Escalation 20
  1.0653,                                 !- Year Escalation 21
  1.0712,                                 !- Year Escalation 22
  1.0742,                                 !- Year Escalation 23
  1.0801,                                 !- Year Escalation 24
  1.0831,                                 !- Year Escalation 25
  1.0831,                                 !- Year Escalation 26
  1.0861,                                 !- Year Escalation 27
  1.0890,                                 !- Year Escalation 28
  1.0920,                                 !- Year Escalation 29
  1.0950;                                 !- Year Escalation 30

Building,
  Building 1,                             !- Name
  0,                                      !- North Axis {deg}
  ,                                       !- Terrain
  ,                                       !- Loads Convergence Tolerance Value
  ,                                       !- Temperature Convergence Tolerance Value {deltaC}
  FullExteriorWithReflections,            !- Solar Distribution
  ,                                       !- Maximum Number of Warmup Days
  ;                                       !- Minimum Number of Warmup Days

Zone,
  Thermal Zone 1,                         !- Name
  -0,                                     !- Direction of Relative North {deg}
  -55.0553339831846,                      !- X Origin {m}
  11.667261889578,                        !- Y Origin {m}
  23.75,                                  !- Z Origin {m}
  ,                                       !- Type
  ,                                       !- Multiplier
  ,                                       !- Ceiling Height {m}
  ,                                       !- Volume {m3}
  ,                                       !- Floor Area {m2}
  ,                                       !- Zone Inside Convection Algorithm
  ;                                       !- Zone Outside Convection Algorithm

BuildingSurface:Detailed,
  Surface 212,                            !- Name
  Wall,                                   !- Surface Type
  ASHRAE 90.1-2004 ExtWall Mass ClimateZone 6, !- Construction Name
  Thermal Zone 1,                         !- Zone Name
  Outdoors,                               !- Outside Boundary Condition
  ,                                       !- Outside Boundary Condition Object
  SunExposed,                             !- Sun Exposure
  WindExposed,                            !- Wind Exposure
  ,                                       !- View Factor to Ground
  ,                                       !- Number of Vertices
  7.82303695842999, 7.82303695842997, 2.5, !- X,Y,Z Vertex 1 {m}
  7.82303695842999, 7.82303695842997, 0,  !- X,Y,Z Vertex 2 {m}
  -1.4210854715202e-14, -3.19744231092045e-14, 0, !- X,Y,Z Vertex 3 {m}
  -1.4210854715202e-14, -3.19744231092045e-14, 2.5; !- X,Y,Z Vertex 4 {m}

FenestrationSurface:Detailed,
  Sub Surface 62,                         !- Name
  Window,                                 !- Surface Type
  ASHRAE 90.1-2004 ExtWindow ClimateZone 4-6, !- Construction Name
  Surface 212,                            !- Building Surface Name
  ,                                       !- Outside Boundary Condition Object
  ,                                       !- View Factor to Ground
  ,                                       !- Shading Control Name
  ,                                       !- Frame and Divider Name
  ,                                       !- Multiplier
  ,                                       !- Number of Vertices
  7.80507644618785, 7.80507644618783, 2.44927972409293, !- X,Y,Z Vertex 1 {m}
  7.80507644618785, 7.80507644618783, 0.0254, !- X,Y,Z Vertex 2 {m}
  0.0179605122421265, 0.0179605122421069, 0.0254, !- X,Y,Z Vertex 3 {m}
  0.0179605122421265, 0.0179605122421069, 2.44927972409293; !- X,Y,Z Vertex 4 {m}

BuildingSurface:Detailed,
  Surface 213,                            !- Name
  Wall,                                   !- Surface Type
  ASHRAE 90.1-2004 ExtWall Mass ClimateZone 6, !- Construction Name
  Thermal Zone 1,                         !- Zone Name
  Outdoors,                               !- Outside Boundary Condition
  ,                                       !- Outside Boundary Condition Object
  SunExposed,                             !- Sun Exposure
  WindExposed,                            !- Wind Exposure
  ,                                       !- View Factor to Ground
  ,                                       !- Number of Vertices
  15.64607391686, 15.64607391686, 2.5,    !- X,Y,Z Vertex 1 {m}
  15.64607391686, 15.64607391686, 0,      !- X,Y,Z Vertex 2 {m}
  7.82303695842999, 7.82303695842997, 0,  !- X,Y,Z Vertex 3 {m}
  7.82303695842999, 7.82303695842997, 2.5; !- X,Y,Z Vertex 4 {m}

FenestrationSurface:Detailed,
  Sub Surface 70,                         !- Name
  Window,                                 !- Surface Type
  ASHRAE 90.1-2004 ExtWindow ClimateZone 4-6, !- Construction Name
  Surface 213,                            !- Building Surface Name
  ,                                       !- Outside Boundary Condition Object
  ,                                       !- View Factor to Ground
  ,                                       !- Shading Control Name
  ,                                       !- Frame and Divider Name
  ,                                       !- Multiplier
  ,                                       !- Number of Vertices
  15.6281134046179, 15.6281134046179, 2.44927972409293, !- X,Y,Z Vertex 1 {m}
  15.6281134046179, 15.6281134046179, 0.0254, !- X,Y,Z Vertex 2 {m}
  7.84099747067213, 7.84099747067211, 0.0254, !- X,Y,Z Vertex 3 {m}
  7.84099747067213, 7.84099747067211, 2.44927972409293; !- X,Y,Z Vertex 4 {m}

BuildingSurface:Detailed,
  Surface 214,                            !- Name
  Wall,                                   !- Surface Type
  ASHRAE 90.1-2004 ExtWall Mass ClimateZone 6, !- Construction Name
  Thermal Zone 1,                         !- Zone Name
  Outdoors,                               !- Outside Boundary Condition
  ,                                       !- Outside Boundary Condition Object
  SunExposed,                             !- Sun Exposure
  WindExposed,                            !- Wind Exposure
  ,                                       !- View Factor to Ground
  ,                                       !- Number of Vertices
  22.9507556161976, 8.34139221752247, 2.5, !- X,Y,Z Vertex 1 {m}
  22.9507556161976, 8.34139221752247, 0,  !- X,Y,Z Vertex 2 {m}
  15.64607391686, 15.64607391686, 0,      !- X,Y,Z Vertex 3 {m}
  15.64607391686, 15.64607391686, 2.5;    !- X,Y,Z Vertex 4 {m}

FenestrationSurface:Detailed,
  Sub Surface 72,                         !- Name
  Window,                                 !- Surface Type
  ASHRAE 90.1-2004 ExtWindow ClimateZone 4-6, !- Construction Name
  Surface 214,                            !- Building Surface Name
  ,                                       !- Outside Boundary Condition Object
  ,                                       !- View Factor to Ground
  ,                                       !- Shading Control Name
  ,                                       !- Frame and Divider Name
  ,                                       !- Multiplier
  ,                                       !- Number of Vertices
  22.9327951039555, 8.35935272976461, 2.45007341524247, !- X,Y,Z Vertex 1 {m}
  22.9327951039555, 8.35935272976461, 0.0254, !- X,Y,Z Vertex 2 {m}
  15.6640344291021, 15.6281134046179, 0.0254, !- X,Y,Z Vertex 3 {m}
  15.6640344291021, 15.6281134046179, 2.45007341524247; !- X,Y,Z Vertex 4 {m}

BuildingSurface:Detailed,
  Surface 215,                            !- Name
  Wall,                                   !- Surface Type
  ASHRAE 90.1-2004 ExtWall Mass ClimateZone 6, !- Construction Name
  Thermal Zone 1,                         !- Zone Name
  Outdoors,                               !- Outside Boundary Condition
  ,                                       !- Outside Boundary Condition Object
  SunExposed,                             !- Sun Exposure
  WindExposed,                            !- Wind Exposure
  ,                                       !- View Factor to Ground
  ,                                       !- Number of Vertices
  30.2554373155352, 1.03671051818487, 2.5, !- X,Y,Z Vertex 1 {m}
  30.2554373155352, 1.03671051818487, 0,  !- X,Y,Z Vertex 2 {m}
  22.9507556161976, 8.34139221752247, 0,  !- X,Y,Z Vertex 3 {m}
  22.9507556161976, 8.34139221752247, 2.5; !- X,Y,Z Vertex 4 {m}

FenestrationSurface:Detailed,
  Sub Surface 80,                         !- Name
  Window,                                 !- Surface Type
  ASHRAE 90.1-2004 ExtWindow ClimateZone 4-6, !- Construction Name
  Surface 215,                            !- Building Surface Name
  ,                                       !- Outside Boundary Condition Object
  ,                                       !- View Factor to Ground
  ,                                       !- Shading Control Name
  ,                                       !- Frame and Divider Name
  ,                                       !- Multiplier
  ,                                       !- Number of Vertices
  30.2374768032931, 1.05467103042701, 2.45007341524247, !- X,Y,Z Vertex 1 {m}
  30.2374768032931, 1.05467103042701, 0.0254, !- X,Y,Z Vertex 2 {m}
  22.9687161284397, 8.32343170528033, 0.0254, !- X,Y,Z Vertex 3 {m}
  22.9687161284397, 8.32343170528033, 2.45007341524247; !- X,Y,Z Vertex 4 {m}

BuildingSurface:Detailed,
  Surface 216,                            !- Name
  Wall,                                   !- Surface Type
  ASHRAE 90.1-2004 ExtWall Mass ClimateZone 6, !- Construction Name
  Thermal Zone 1,                         !- Zone Name
  Outdoors,                               !- Outside Boundary Condition
  ,                                       !- Outside Boundary Condition Object
  SunExposed,                             !- Sun Exposure
  WindExposed,                            !- Wind Exposure
  ,                                       !- View Factor to Ground
  ,                                       !- Number of Vertices
  37.5601190148727, -6.26797118115273, 2.5, !- X,Y,Z Vertex 1 {m}
  37.5601190148727, -6.26797118115273, 0, !- X,Y,Z Vertex 2 {m}
  30.2554373155352, 1.03671051818487, 0,  !- X,Y,Z Vertex 3 {m}
  30.2554373155352, 1.03671051818487, 2.5; !- X,Y,Z Vertex 4 {m}

FenestrationSurface:Detailed,
  Sub Surface 73,                         !- Name
  Window,                                 !- Surface Type
  ASHRAE 90.1-2004 ExtWindow ClimateZone 4-6, !- Construction Name
  Surface 216,                            !- Building Surface Name
  ,                                       !- Outside Boundary Condition Object
  ,                                       !- View Factor to Ground
  ,                                       !- Shading Control Name
  ,                                       !- Frame and Divider Name
  ,                                       !- Multiplier
  ,                                       !- Number of Vertices
  37.5421585026306, -6.25001066891059, 2.45007341524247, !- X,Y,Z Vertex 1 {m}
  37.5421585026306, -6.25001066891059, 0.0254, !- X,Y,Z Vertex 2 {m}
  30.2733978277773, 1.01875000594273, 0.0254, !- X,Y,Z Vertex 3 {m}
  30.2733978277773, 1.01875000594273, 2.45007341524247; !- X,Y,Z Vertex 4 {m}

BuildingSurface:Detailed,
  Surface 217,                            !- Name
  Wall,                                   !- Surface Type
  ASHRAE 90.1-2004 ExtWall Mass ClimateZone 6, !- Construction Name
  Thermal Zone 1,                         !- Zone Name
  Outdoors,                               !- Outside Boundary Condition
  ,                                       !- Outside Boundary Condition Object
  SunExposed,                             !- Sun Exposure
  WindExposed,                            !- Wind Exposure
  ,                                       !- View Factor to Ground
  ,                                       !- Number of Vertices
  44.8648007142103, -13.5726528804903, 2.5, !- X,Y,Z Vertex 1 {m}
  44.8648007142103, -13.5726528804903, 0, !- X,Y,Z Vertex 2 {m}
  37.5601190148727, -6.26797118115273, 0, !- X,Y,Z Vertex 3 {m}
  37.5601190148727, -6.26797118115273, 2.5; !- X,Y,Z Vertex 4 {m}

FenestrationSurface:Detailed,
  Sub Surface 60,                         !- Name
  Window,                                 !- Surface Type
  ASHRAE 90.1-2004 ExtWindow ClimateZone 4-6, !- Construction Name
  Surface 217,                            !- Building Surface Name
  ,                                       !- Outside Boundary Condition Object
  ,                                       !- View Factor to Ground
  ,                                       !- Shading Control Name
  ,                                       !- Frame and Divider Name
  ,                                       !- Multiplier
  ,                                       !- Number of Vertices
  44.8468402019682, -13.5546923682482, 2.45007341524247, !- X,Y,Z Vertex 1 {m}
  44.8468402019682, -13.5546923682482, 0.0254, !- X,Y,Z Vertex 2 {m}
  37.5780795271148, -6.28593169339487, 0.0254, !- X,Y,Z Vertex 3 {m}
  37.5780795271148, -6.28593169339487, 2.45007341524247; !- X,Y,Z Vertex 4 {m}

BuildingSurface:Detailed,
  Surface 218,                            !- Name
  Wall,                                   !- Surface Type
  ASHRAE 90.1-2004 ExtWall Mass ClimateZone 6, !- Construction Name
  Thermal Zone 1,                         !- Zone Name
  Outdoors,                               !- Outside Boundary Condition
  ,                                       !- Outside Boundary Condition Object
  SunExposed,                             !- Sun Exposure
  WindExposed,                            !- Wind Exposure
  ,                                       !- View Factor to Ground
  ,                                       !- Number of Vertices
  52.1694824135479, -20.8773345798279, 2.5, !- X,Y,Z Vertex 1 {m}
  52.1694824135479, -20.8773345798279, 0, !- X,Y,Z Vertex 2 {m}
  44.8648007142103, -13.5726528804903, 0, !- X,Y,Z Vertex 3 {m}
  44.8648007142103, -13.5726528804903, 2.5; !- X,Y,Z Vertex 4 {m}

FenestrationSurface:Detailed,
  Sub Surface 83,                         !- Name
  Window,                                 !- Surface Type
  ASHRAE 90.1-2004 ExtWindow ClimateZone 4-6, !- Construction Name
  Surface 218,                            !- Building Surface Name
  ,                                       !- Outside Boundary Condition Object
  ,                                       !- View Factor to Ground
  ,                                       !- Shading Control Name
  ,                                       !- Frame and Divider Name
  ,                                       !- Multiplier
  ,                                       !- Number of Vertices
  52.1515219013058, -20.8593740675858, 2.45007341524247, !- X,Y,Z Vertex 1 {m}
  52.1515219013058, -20.8593740675858, 0.0254, !- X,Y,Z Vertex 2 {m}
  44.8827612264524, -13.5906133927325, 0.0254, !- X,Y,Z Vertex 3 {m}
  44.8827612264524, -13.5906133927325, 2.45007341524247; !- X,Y,Z Vertex 4 {m}

BuildingSurface:Detailed,
  Surface 219,                            !- Name
  Wall,                                   !- Surface Type
  ASHRAE 90.1-2004 ExtWall Mass ClimateZone 6, !- Construction Name
  Thermal Zone 1,                         !- Zone Name
  Outdoors,                               !- Outside Boundary Condition
  ,                                       !- Outside Boundary Condition Object
  SunExposed,                             !- Sun Exposure
  WindExposed,                            !- Wind Exposure
  ,                                       !- View Factor to Ground
  ,                                       !- Number of Vertices
  59.4741641128855, -28.1820162791654, 2.5, !- X,Y,Z Vertex 1 {m}
  59.4741641128855, -28.1820162791654, 0, !- X,Y,Z Vertex 2 {m}
  52.1694824135479, -20.8773345798279, 0, !- X,Y,Z Vertex 3 {m}
  52.1694824135479, -20.8773345798279, 2.5; !- X,Y,Z Vertex 4 {m}

FenestrationSurface:Detailed,
  Sub Surface 58,                         !- Name
  Window,                                 !- Surface Type
  ASHRAE 90.1-2004 ExtWindow ClimateZone 4-6, !- Construction Name
  Surface 219,                            !- Building Surface Name
  ,                                       !- Outside Boundary Condition Object
  ,                                       !- View Factor to Ground
  ,                                       !- Shading Control Name
  ,                                       !- Frame and Divider Name
  ,                                       !- Multiplier
  ,                                       !- Number of Vertices
  59.4562036006434, -28.1640557669233, 2.45007341524247, !- X,Y,Z Vertex 1 {m}
  59.4562036006434, -28.1640557669233, 0.0254, !- X,Y,Z Vertex 2 {m}
  52.18744292579, -20.89529509207, 0.0254, !- X,Y,Z Vertex 3 {m}
  52.18744292579, -20.89529509207, 2.45007341524247; !- X,Y,Z Vertex 4 {m}

BuildingSurface:Detailed,
  Surface 220,                            !- Name
  Wall,                                   !- Surface Type
  ASHRAE 90.1-2004 ExtWall Mass ClimateZone 6, !- Construction Name
  Thermal Zone 1,                         !- Zone Name
  Outdoors,                               !- Outside Boundary Condition
  ,                                       !- Outside Boundary Condition Object
  SunExposed,                             !- Sun Exposure
  WindExposed,                            !- Wind Exposure
  ,                                       !- View Factor to Ground
  ,                                       !- Number of Vertices
  67.5251246043939, -20.131055787657, 2.5, !- X,Y,Z Vertex 1 {m}
  67.5251246043939, -20.131055787657, 0,  !- X,Y,Z Vertex 2 {m}
  59.4741641128855, -28.1820162791654, 0, !- X,Y,Z Vertex 3 {m}
  59.4741641128855, -28.1820162791654, 2.5; !- X,Y,Z Vertex 4 {m}

FenestrationSurface:Detailed,
  Sub Surface 59,                         !- Name
  Window,                                 !- Surface Type
  ASHRAE 90.1-2004 ExtWindow ClimateZone 4-6, !- Construction Name
  Surface 220,                            !- Building Surface Name
  ,                                       !- Outside Boundary Condition Object
  ,                                       !- View Factor to Ground
  ,                                       !- Shading Control Name
  ,                                       !- Frame and Divider Name
  ,                                       !- Multiplier
  ,                                       !- Number of Vertices
  67.5071640921518, -20.1490162998991, 2.44896322832919, !- X,Y,Z Vertex 1 {m}
  67.5071640921518, -20.1490162998991, 0.0254, !- X,Y,Z Vertex 2 {m}