
OS:Version,
  {9babeed0-bb23-438b-bce7-e4c23a453986}, !- Handle
  1.6.0;                                  !- Version Identifier

OS:BuildingStory,
  {f31b708a-91fa-44ca-a915-7c5651fc672c}, !- Handle
  Story 1,                                !- Name
  0,                                      !- Nominal Z Coordinate {m}
  3.75,                                   !- Nominal Floor to Floor Height {m}
  ,                                       !- Default Construction Set Name
  ,                                       !- Default Schedule Set Name
  {5090bc6b-7d37-4ed2-a0aa-9b6ce08fd492}; !- Group Rendering Name

OS:Space,
  {48b6efe4-e1d7-43a9-9cc5-011068926eb8}, !- Handle
  0 Core Space,                           !- Name
  ,                                       !- Space Type Name
  ,                                       !- Default Construction Set Name
  ,                                       !- Default Schedule Set Name
  -0,                                     !- Direction of Relative North {deg}
  -47.18,                                 !- X Origin {m}
  -30.68,                                 !- Y Origin {m}
  0,                                      !- Z Origin {m}
  {f31b708a-91fa-44ca-a915-7c5651fc672c}, !- Building Story Name
  {d3e26cf0-f175-469d-a568-65db11eeee1b}; !- Thermal Zone Name

OS:Surface,
  {6ec05ef5-8db7-49f5-af6f-e5b1bcc95f2c}, !- Handle
  Surface 2,                              !- Name
  Wall,                                   !- Surface Type
  ,                                       !- Construction Name
  {48b6efe4-e1d7-43a9-9cc5-011068926eb8}, !- Space Name
  Outdoors,                               !- Outside Boundary Condition
  ,                                       !- Outside Boundary Condition Object
  SunExposed,                             !- Sun Exposure
  WindExposed,                            !- Wind Exposure
  ,                                       !- View Factor to Ground
  ,                                       !- Number of Vertices
  0, 11.155, 3.75,                        !- X,Y,Z Vertex 1 {m}
  0, 11.155, 0,                           !- X,Y,Z Vertex 2 {m}
  0, 0, 0,                                !- X,Y,Z Vertex 3 {m}
  0, 0, 3.75;                             !- X,Y,Z Vertex 4 {m}

OS:Surface,
  {03fdf5fb-9db0-46c4-8783-91db1a38df86}, !- Handle
  Surface 3,                              !- Name
  Wall,                                   !- Surface Type
  ,                                       !- Construction Name
  {48b6efe4-e1d7-43a9-9cc5-011068926eb8}, !- Space Name
  Outdoors,                               !- Outside Boundary Condition
  ,                                       !- Outside Boundary Condition Object
  SunExposed,                             !- Sun Exposure
  WindExposed,                            !- Wind Exposure
  ,                                       !- View Factor to Ground
  ,                                       !- Number of Vertices
  0, 22.31, 3.75,                         !- X,Y,Z Vertex 1 {m}
  0, 22.31, 0,                            !- X,Y,Z Vertex 2 {m}
  0, 11.155, 0,                           !- X,Y,Z Vertex 3 {m}
  0, 11.155, 3.75;                        !- X,Y,Z Vertex 4 {m}

OS:Surface,
  {991ff15d-26e7-4ada-84a8-9f25c606a81e}, !- Handle
  Surface 4,                              !- Name
  Wall,                                   !- Surface Type
  ,                                       !- Construction Name
  {48b6efe4-e1d7-43a9-9cc5-011068926eb8}, !- Space Name
  Outdoors,                               !- Outside Boundary Condition
  ,                                       !- Outside Boundary Condition Object
  SunExposed,                             !- Sun Exposure
  WindExposed,                            !- Wind Exposure
  ,                                       !- View Factor to Ground
  ,                                       !- Number of Vertices
  10.135, 22.3866666666667, 3.75,         !- X,Y,Z Vertex 1 {m}
  10.135, 22.3866666666667, 0,            !- X,Y,Z Vertex 2 {m}
  2.18431016093284e-17, 22.31, 0,         !- X,Y,Z Vertex 3 {m}
  2.18431016093284e-17, 22.31, 3.75;      !- X,Y,Z Vertex 4 {m}

OS:Surface,
  {36d702db-4708-426e-960d-cc7220185ff5}, !- Handle
  Surface 5,                              !- Name
  Wall,                                   !- Surface Type
  ,                                       !- Construction Name
  {48b6efe4-e1d7-43a9-9cc5-011068926eb8}, !- Space Name
  Outdoors,                               !- Outside Boundary Condition
  ,                                       !- Outside Boundary Condition Object
  SunExposed,                             !- Sun Exposure
  WindExposed,                            !- Wind Exposure
  ,                                       !- View Factor to Ground
  ,                                       !- Number of Vertices
  20.27, 22.4633333333333, 3.75,          !- X,Y,Z Vertex 1 {m}
  20.27, 22.4633333333333, 0,             !- X,Y,Z Vertex 2 {m}
  10.135, 22.3866666666667, 0,            !- X,Y,Z Vertex 3 {m}
  10.135, 22.3866666666667, 3.75;         !- X,Y,Z Vertex 4 {m}

OS:Surface,
  {54e1ad7e-a2c9-4aea-afa0-d2b0562de478}, !- Handle
  Surface 6,                              !- Name
  Wall,                                   !- Surface Type
  ,                                       !- Construction Name
  {48b6efe4-e1d7-43a9-9cc5-011068926eb8}, !- Space Name
  Outdoors,                               !- Outside Boundary Condition
  ,                                       !- Outside Boundary Condition Object
  SunExposed,                             !- Sun Exposure
  WindExposed,                            !- Wind Exposure
  ,                                       !- View Factor to Ground
  ,                                       !- Number of Vertices
  30.405, 22.54, 3.75,                    !- X,Y,Z Vertex 1 {m}
  30.405, 22.54, 0,                       !- X,Y,Z Vertex 2 {m}
  20.27, 22.4633333333333, 0,             !- X,Y,Z Vertex 3 {m}
  20.27, 22.4633333333333, 3.75;          !- X,Y,Z Vertex 4 {m}

OS:Surface,
  {71b4528b-74e4-4657-8566-e75a576b6049}, !- Handle
  Surface 7,                              !- Name
  Wall,                                   !- Surface Type
  ,                                       !- Construction Name
  {48b6efe4-e1d7-43a9-9cc5-011068926eb8}, !- Space Name
  Outdoors,                               !- Outside Boundary Condition
  ,                                       !- Outside Boundary Condition Object
  SunExposed,                             !- Sun Exposure
  WindExposed,                            !- Wind Exposure
  ,                                       !- View Factor to Ground
  ,                                       !- Number of Vertices
  40.54, 22.6166666666667, 3.75,          !- X,Y,Z Vertex 1 {m}
  40.54, 22.6166666666667, 0,             !- X,Y,Z Vertex 2 {m}
  30.405, 22.54, 0,                       !- X,Y,Z Vertex 3 {m}
  30.405, 22.54, 3.75;                    !- X,Y,Z Vertex 4 {m}

OS:Surface,
  {0036ff74-aee7-4a91-9733-6ef09292e55f}, !- Handle
  Surface 8,                              !- Name
  Wall,                                   !- Surface Type
  ,                                       !- Construction Name
  {48b6efe4-e1d7-43a9-9cc5-011068926eb8}, !- Space Name
  Outdoors,                               !- Outside Boundary Condition
  ,                                       !- Outside Boundary Condition Object
  SunExposed,                             !- Sun Exposure
  WindExposed,                            !- Wind Exposure
  ,                                       !- View Factor to Ground
  ,                                       !- Number of Vertices
  50.675, 22.6933333333333, 3.75,         !- X,Y,Z Vertex 1 {m}
  50.675, 22.6933333333333, 0,            !- X,Y,Z Vertex 2 {m}
  40.54, 22.6166666666667, 0,             !- X,Y,Z Vertex 3 {m}
  40.54, 22.6166666666667, 3.75;          !- X,Y,Z Vertex 4 {m}

OS:Surface,
  {d77df2b6-5112-477c-a8fb-3caa20880a73}, !- Handle
  Surface 9,                              !- Name
  Wall,                                   !- Surface Type
  ,                                       !- Construction Name
  {48b6efe4-e1d7-43a9-9cc5-011068926eb8}, !- Space Name
  Outdoors,                               !- Outside Boundary Condition
  ,                                       !- Outside Boundary Condition Object
  SunExposed,                             !- Sun Exposure
  WindExposed,                            !- Wind Exposure
  ,                                       !- View Factor to Ground
  ,                                       !- Number of Vertices
  60.81, 22.77, 3.75,                     !- X,Y,Z Vertex 1 {m}
  60.81, 22.77, 0,                        !- X,Y,Z Vertex 2 {m}
  50.675, 22.6933333333333, 0,            !- X,Y,Z Vertex 3 {m}
  50.675, 22.6933333333333, 3.75;         !- X,Y,Z Vertex 4 {m}

OS:Surface,
  {920628af-b466-4e4e-a451-232cdcb49003}, !- Handle
  Surface 10,                             !- Name
  Wall,                                   !- Surface Type
  ,                                       !- Construction Name
  {48b6efe4-e1d7-43a9-9cc5-011068926eb8}, !- Space Name
  Outdoors,                               !- Outside Boundary Condition
  ,                                       !- Outside Boundary Condition Object
  SunExposed,                             !- Sun Exposure
  WindExposed,                            !- Wind Exposure
  ,                                       !- View Factor to Ground
  ,                                       !- Number of Vertices
  60.9275, 34.25, 3.75,                   !- X,Y,Z Vertex 1 {m}
  60.9275, 34.25, 0,                      !- X,Y,Z Vertex 2 {m}
  60.81, 22.77, 0,                        !- X,Y,Z Vertex 3 {m}
  60.81, 22.77, 3.75;                     !- X,Y,Z Vertex 4 {m}

OS:Surface,
  {445b2331-6102-448c-a828-dd2e5ec1be9e}, !- Handle
  Surface 11,                             !- Name
  Wall,                                   !- Surface Type
  ,                                       !- Construction Name
  {48b6efe4-e1d7-43a9-9cc5-011068926eb8}, !- Space Name
  Outdoors,                               !- Outside Boundary Condition
  ,                                       !- Outside Boundary Condition Object
  SunExposed,                             !- Sun Exposure
  WindExposed,                            !- Wind Exposure
  ,                                       !- View Factor to Ground
  ,                                       !- Number of Vertices
  61.045, 45.73, 3.75,                    !- X,Y,Z Vertex 1 {m}
  61.045, 45.73, 0,                       !- X,Y,Z Vertex 2 {m}
  60.9275, 34.25, 0,                      !- X,Y,Z Vertex 3 {m}
  60.9275, 34.25, 3.75;                   !- X,Y,Z Vertex 4 {m}

OS:Surface,
  {e6d1335c-15b5-4dac-b952-0e95523738ea}, !- Handle
  Surface 12,                             !- Name
  Wall,                                   !- Surface Type
  ,                                       !- Construction Name
  {48b6efe4-e1d7-43a9-9cc5-011068926eb8}, !- Space Name
  Outdoors,                               !- Outside Boundary Condition
  ,                                       !- Outside Boundary Condition Object
  SunExposed,                             !- Sun Exposure
  WindExposed,                            !- Wind Exposure
  ,                                       !- View Factor to Ground
  ,                                       !- Number of Vertices
  61.1625, 57.21, 3.75,                   !- X,Y,Z Vertex 1 {m}
  61.1625, 57.21, 0,                      !- X,Y,Z Vertex 2 {m}
  61.045, 45.73, 0,                       !- X,Y,Z Vertex 3 {m}
  61.045, 45.73, 3.75;                    !- X,Y,Z Vertex 4 {m}

OS:Surface,
  {d7a17acd-a960-496c-b1a8-57b2c2b571e5}, !- Handle
  Surface 13,                             !- Name
  Wall,                                   !- Surface Type
  ,                                       !- Construction Name
  {48b6efe4-e1d7-43a9-9cc5-011068926eb8}, !- Space Name
  Outdoors,                               !- Outside Boundary Condition
  ,                                       !- Outside Boundary Condition Object
  SunExposed,                             !- Sun Exposure
  WindExposed,                            !- Wind Exposure
  ,                                       !- View Factor to Ground
  ,                                       !- Number of Vertices
  61.28, 68.69, 3.75,                     !- X,Y,Z Vertex 1 {m}
  61.28, 68.69, 0,                        !- X,Y,Z Vertex 2 {m}
  61.1625, 57.21, 0,                      !- X,Y,Z Vertex 3 {m}
  61.1625, 57.21, 3.75;                   !- X,Y,Z Vertex 4 {m}

OS:Surface,
  {6835be68-4b6a-4a95-b05e-b6fc3c03caae}, !- Handle
  Surface 14,                             !- Name
  Wall,                                   !- Surface Type
  ,                                       !- Construction Name
  {48b6efe4-e1d7-43a9-9cc5-011068926eb8}, !- Space Name
  Outdoors,                               !- Outside Boundary Condition
  ,                                       !- Outside Boundary Condition Object
  SunExposed,                             !- Sun Exposure
  WindExposed,                            !- Wind Exposure
  ,                                       !- View Factor to Ground
  ,                                       !- Number of Vertices
  70.25, 68.69, 3.75,                     !- X,Y,Z Vertex 1 {m}
  70.25, 68.69, 0,                        !- X,Y,Z Vertex 2 {m}
  61.28, 68.69, 0,                        !- X,Y,Z Vertex 3 {m}
  61.28, 68.69, 3.75;                     !- X,Y,Z Vertex 4 {m}

OS:Surface,
  {c526a4ad-e02f-4733-b262-c00999b19fe1}, !- Handle
  Surface 15,                             !- Name
  Wall,                                   !- Surface Type
  ,                                       !- Construction Name
  {48b6efe4-e1d7-43a9-9cc5-011068926eb8}, !- Space Name
  Outdoors,                               !- Outside Boundary Condition
  ,                                       !- Outside Boundary Condition Object
  SunExposed,                             !- Sun Exposure
  WindExposed,                            !- Wind Exposure
  ,                                       !- View Factor to Ground
  ,                                       !- Number of Vertices
  79.22, 68.69, 3.75,                     !- X,Y,Z Vertex 1 {m}
  79.22, 68.69, 0,                        !- X,Y,Z Vertex 2 {m}
  70.25, 68.69, 0,                        !- X,Y,Z Vertex 3 {m}
  70.25, 68.69, 3.75;                     !- X,Y,Z Vertex 4 {m}

OS:Surface,
  {13b9249f-7fbc-41b8-9b5f-05c2e2b8e9b1}, !- Handle
  Surface 16,                             !- Name
  Wall,                                   !- Surface Type
  ,                                       !- Construction Name
  {48b6efe4-e1d7-43a9-9cc5-011068926eb8}, !- Space Name
  Outdoors,                               !- Outside Boundary Condition
  ,                                       !- Outside Boundary Condition Object
  SunExposed,                             !- Sun Exposure
  WindExposed,                            !- Wind Exposure
  ,                                       !- View Factor to Ground
  ,                                       !- Number of Vertices
  79.645, 57.5133333333333, 3.75,         !- X,Y,Z Vertex 1 {m}
  79.645, 57.5133333333333, 0,            !- X,Y,Z Vertex 2 {m}
  79.22, 68.69, 0,                        !- X,Y,Z Vertex 3 {m}
  79.22, 68.69, 3.75;                     !- X,Y,Z Vertex 4 {m}

OS:Surface,
  {8f54b085-f844-4a22-bb4a-b59820d34c68}, !- Handle
  Surface 17,                             !- Name
  Wall,                                   !- Surface Type
  ,                                       !- Construction Name
  {48b6efe4-e1d7-43a9-9cc5-011068926eb8}, !- Space Name
  Outdoors,                               !- Outside Boundary Condition
  ,                                       !- Outside Boundary Condition Object
  SunExposed,                             !- Sun Exposure
  WindExposed,                            !- Wind Exposure
  ,                                       !- View Factor to Ground
  ,                                       !- Number of Vertices
  80.07, 46.3366666666667, 3.75,          !- X,Y,Z Vertex 1 {m}
  80.07, 46.3366666666667, 0,             !- X,Y,Z Vertex 2 {m}
  79.645, 57.5133333333333, 0,            !- X,Y,Z Vertex 3 {m}
  79.645, 57.5133333333333, 3.75;         !- X,Y,Z Vertex 4 {m}

OS:Surface,
  {fef1ceba-fac6-454e-a752-41e74082a315}, !- Handle
  Surface 18,                             !- Name
  Wall,                                   !- Surface Type
  ,                                       !- Construction Name
  {48b6efe4-e1d7-43a9-9cc5-011068926eb8}, !- Space Name
  Outdoors,                               !- Outside Boundary Condition
  ,                                       !- Outside Boundary Condition Object
  SunExposed,                             !- Sun Exposure
  WindExposed,                            !- Wind Exposure
  ,                                       !- View Factor to Ground
  ,                                       !- Number of Vertices
  80.495, 35.16, 3.75,                    !- X,Y,Z Vertex 1 {m}
  80.495, 35.16, 0,                       !- X,Y,Z Vertex 2 {m}
  80.07, 46.3366666666667, 0,             !- X,Y,Z Vertex 3 {m}
  80.07, 46.3366666666667, 3.75;          !- X,Y,Z Vertex 4 {m}

OS:Surface,
  {ea4f9b19-b6aa-43bc-ab1c-5af4e2744cfa}, !- Handle
  Surface 19,                             !- Name
  Wall,                                   !- Surface Type
  ,                                       !- Construction Name
  {48b6efe4-e1d7-43a9-9cc5-011068926eb8}, !- Space Name
  Outdoors,                               !- Outside Boundary Condition
  ,                                       !- Outside Boundary Condition Object
  SunExposed,                             !- Sun Exposure
  WindExposed,                            !- Wind Exposure
  ,                                       !- View Factor to Ground
  ,                                       !- Number of Vertices
  80.92, 23.9833333333333, 3.75,          !- X,Y,Z Vertex 1 {m}
  80.92, 23.9833333333333, 0,             !- X,Y,Z Vertex 2 {m}
  80.495, 35.16, 0,                       !- X,Y,Z Vertex 3 {m}
  80.495, 35.16, 3.75;                    !- X,Y,Z Vertex 4 {m}

OS:Surface,
  {37c50e9d-d711-464f-83d8-e5d657ca523b}, !- Handle
  Surface 20,                             !- Name
  Wall,                                   !- Surface Type
  ,                                       !- Construction Name
  {48b6efe4-e1d7-43a9-9cc5-011068926eb8}, !- Space Name
  Outdoors,                               !- Outside Boundary Condition
  ,                                       !- Outside Boundary Condition Object
  SunExposed,                             !- Sun Exposure
  WindExposed,                            !- Wind Exposure
  ,                                       !- View Factor to Ground
  ,                                       !- Number of Vertices
  81.345, 12.8066666666667, 3.75,         !- X,Y,Z Vertex 1 {m}
  81.345, 12.8066666666667, 0,            !- X,Y,Z Vertex 2 {m}
  80.92, 23.9833333333333, 0,             !- X,Y,Z Vertex 3 {m}
  80.92, 23.9833333333333, 3.75;          !- X,Y,Z Vertex 4 {m}

OS:Surface,
  {161879f8-8acb-4325-b802-2b19152d6864}, !- Handle
  Surface 21,                             !- Name
  Wall,                                   !- Surface Type
  ,                                       !- Construction Name
  {48b6efe4-e1d7-43a9-9cc5-011068926eb8}, !- Space Name
  Outdoors,                               !- Outside Boundary Condition
  ,                                       !- Outside Boundary Condition Object
  SunExposed,                             !- Sun Exposure
  WindExposed,                            !- Wind Exposure
  ,                                       !- View Factor to Ground
  ,                                       !- Number of Vertices
  81.77, 1.63, 3.75,                      !- X,Y,Z Vertex 1 {m}
  81.77, 1.63, 0,                         !- X,Y,Z Vertex 2 {m}
  81.345, 12.8066666666667, 0,            !- X,Y,Z Vertex 3 {m}
  81.345, 12.8066666666667, 3.75;         !- X,Y,Z Vertex 4 {m}

OS:Surface,
  {3153ae79-d412-40e0-96d1-e18c17a94aeb}, !- Handle
  Surface 22,                             !- Name
  Wall,                                   !- Surface Type
  ,                                       !- Construction Name
  {48b6efe4-e1d7-43a9-9cc5-011068926eb8}, !- Space Name
  Outdoors,                               !- Outside Boundary Condition
  ,                                       !- Outside Boundary Condition Object
  SunExposed,                             !- Sun Exposure
  WindExposed,                            !- Wind Exposure
  ,                                       !- View Factor to Ground
  ,                                       !- Number of Vertices
  71.54875, 1.42625, 3.75,                !- X,Y,Z Vertex 1 {m}
  71.54875, 1.42625, 0,                   !- X,Y,Z Vertex 2 {m}
  81.77, 1.63, 0,                         !- X,Y,Z Vertex 3 {m}
  81.77, 1.63, 3.75;                      !- X,Y,Z Vertex 4 {m}

OS:Surface,
  {657acb81-e09d-44c1-867f-5a664cb401b8}, !- Handle
  Surface 23,                             !- Name
  Wall,                                   !- Surface Type
  ,                                       !- Construction Name
  {48b6efe4-e1d7-43a9-9cc5-011068926eb8}, !- Space Name
  Outdoors,                               !- Outside Boundary Condition
  ,                                       !- Outside Boundary Condition Object
  SunExposed,                             !- Sun Exposure
  WindExposed,                            !- Wind Exposure
  ,                                       !- View Factor to Ground
  ,                                       !- Number of Vertices
  61.3275, 1.2225, 3.75,                  !- X,Y,Z Vertex 1 {m}
  61.3275, 1.2225, 0,                     !- X,Y,Z Vertex 2 {m}
  71.54875, 1.42625, 0,                   !- X,Y,Z Vertex 3 {m}
  71.54875, 1.42625, 3.75;                !- X,Y,Z Vertex 4 {m}

OS:Surface,
  {3359ddc2-3876-4173-9938-45d813a4054b}, !- Handle
  Surface 24,                             !- Name
  Wall,                                   !- Surface Type
  ,                                       !- Construction Name
  {48b6efe4-e1d7-43a9-9cc5-011068926eb8}, !- Space Name
  Outdoors,                               !- Outside Boundary Condition
  ,                                       !- Outside Boundary Condition Object
  SunExposed,                             !- Sun Exposure
  WindExposed,                            !- Wind Exposure
  ,                                       !- View Factor to Ground
  ,                                       !- Number of Vertices
  51.10625, 1.01875, 3.75,                !- X,Y,Z Vertex 1 {m}
  51.10625, 1.01875, 0,                   !- X,Y,Z Vertex 2 {m}
  61.3275, 1.2225, 0,                     !- X,Y,Z Vertex 3 {m}
  61.3275, 1.2225, 3.75;                  !- X,Y,Z Vertex 4 {m}

OS:Surface,
  {a7adb922-91d7-4c06-b45f-d072588a8a61}, !- Handle
  Surface 25,                             !- Name
  Wall,                                   !- Surface Type
  ,                                       !- Construction Name
  {48b6efe4-e1d7-43a9-9cc5-011068926eb8}, !- Space Name
  Outdoors,                               !- Outside Boundary Condition
  ,                                       !- Outside Boundary Condition Object
  SunExposed,                             !- Sun Exposure
  WindExposed,                            !- Wind Exposure
  ,                                       !- View Factor to Ground
  ,                                       !- Number of Vertices
  40.885, 0.815000000000001, 3.75,        !- X,Y,Z Vertex 1 {m}
  40.885, 0.815000000000001, 0,           !- X,Y,Z Vertex 2 {m}
  51.10625, 1.01875, 0,                   !- X,Y,Z Vertex 3 {m}
  51.10625, 1.01875, 3.75;                !- X,Y,Z Vertex 4 {m}

OS:Surface,
  {174b6d37-b958-4156-bfc1-ed1c4ccfdecb}, !- Handle
  Surface 26,                             !- Name
  Wall,                                   !- Surface Type
  ,                                       !- Construction Name
  {48b6efe4-e1d7-43a9-9cc5-011068926eb8}, !- Space Name
  Outdoors,                               !- Outside Boundary Condition
  ,                                       !- Outside Boundary Condition Object
  SunExposed,                             !- Sun Exposure
  WindExposed,                            !- Wind Exposure
  ,                                       !- View Factor to Ground
  ,                                       !- Number of Vertices
  30.66375, 0.611249999999998, 3.75,      !- X,Y,Z Vertex 1 {m}
  30.66375, 0.611249999999998, 0,         !- X,Y,Z Vertex 2 {m}
  40.885, 0.815000000000001, 0,           !- X,Y,Z Vertex 3 {m}
  40.885, 0.815000000000001, 3.75;        !- X,Y,Z Vertex 4 {m}

OS:Surface,
  {a8fd42ee-2899-430e-b584-7adb12d52cc7}, !- Handle
  Surface 27,                             !- Name
  Wall,                                   !- Surface Type
  ,                                       !- Construction Name
  {48b6efe4-e1d7-43a9-9cc5-011068926eb8}, !- Space Name
  Outdoors,                               !- Outside Boundary Condition
  ,                                       !- Outside Boundary Condition Object
  SunExposed,                             !- Sun Exposure
  WindExposed,                            !- Wind Exposure
  ,                                       !- View Factor to Ground
  ,                                       !- Number of Vertices
  20.4425, 0.407499999999999, 3.75,       !- X,Y,Z Vertex 1 {m}
  20.4425, 0.407499999999999, 0,          !- X,Y,Z Vertex 2 {m}
  30.66375, 0.611249999999998, 0,         !- X,Y,Z Vertex 3 {m}
  30.66375, 0.611249999999998, 3.75;      !- X,Y,Z Vertex 4 {m}

OS:Surface,
  {7d805fbc-fe0f-4578-b08d-d7ae0881d855}, !- Handle
  Surface 28,                             !- Name
  Wall,                                   !- Surface Type
  ,                                       !- Construction Name
  {48b6efe4-e1d7-43a9-9cc5-011068926eb8}, !- Space Name
  Outdoors,                               !- Outside Boundary Condition
  ,                                       !- Outside Boundary Condition Object
  SunExposed,                             !- Sun Exposure
  WindExposed,                            !- Wind Exposure
  ,                                       !- View Factor to Ground
  ,                                       !- Number of Vertices
  10.22125, 0.203749999999999, 3.75,      !- X,Y,Z Vertex 1 {m}
  10.22125, 0.203749999999999, 0,         !- X,Y,Z Vertex 2 {m}
  20.4425, 0.407499999999999, 0,          !- X,Y,Z Vertex 3 {m}
  20.4425, 0.407499999999999, 3.75;       !- X,Y,Z Vertex 4 {m}

OS:Surface,
  {b036094b-1223-4dca-b076-d476922cde0f}, !- Handle
  Surface 29,                             !- Name
  Wall,                                   !- Surface Type
  ,                                       !- Construction Name
  {48b6efe4-e1d7-43a9-9cc5-011068926eb8}, !- Space Name
  Outdoors,                               !- Outside Boundary Condition
  ,                                       !- Outside Boundary Condition Object
  SunExposed,                             !- Sun Exposure
  WindExposed,                            !- Wind Exposure
  ,                                       !- View Factor to Ground
  ,                                       !- Number of Vertices
  -4.49615496201514e-19, 2.25552509965632e-17, 3.75, !- X,Y,Z Vertex 1 {m}
  -4.49615496201514e-19, 2.25552509965632e-17, 0, !- X,Y,Z Vertex 2 {m}
  10.22125, 0.203749999999999, 0,         !- X,Y,Z Vertex 3 {m}
  10.22125, 0.203749999999999, 3.75;      !- X,Y,Z Vertex 4 {m}

OS:BuildingStory,
  {226169a8-0c0d-450b-82d6-1d696d4155a7}, !- Handle
  Story 2,                                !- Name
  3.75,                                   !- Nominal Z Coordinate {m}
  2.5,                                    !- Nominal Floor to Floor Height {m}
  ,                                       !- Default Construction Set Name
  ,                                       !- Default Schedule Set Name
  {382a12c5-63ed-4398-a489-0e7587068486}; !- Group Rendering Name

OS:Space,
  {97020e0b-0086-4612-a490-a6e596bf003d}, !- Handle
  0 Core Space 1,                         !- Name
  ,                                       !- Space Type Name
  ,                                       !- Default Construction Set Name
  ,                                       !- Default Schedule Set Name
  -0,                                     !- Direction of Relative North {deg}
  -47.18,                                 !- X Origin {m}
  -30.68,                                 !- Y Origin {m}
  3.75,                                   !- Z Origin {m}
  {226169a8-0c0d-450b-82d6-1d696d4155a7}, !- Building Story Name
  {ef757a85-d19d-4750-89f9-b15cc47fbe9f}; !- Thermal Zone Name

OS:Surface,
  {ae599e22-c036-4d6d-aa55-1593ac498e82}, !- Handle
  Surface 32,                             !- Name
  Wall,                                   !- Surface Type
  ,                                       !- Construction Name
  {97020e0b-0086-4612-a490-a6e596bf003d}, !- Space Name
  Outdoors,                               !- Outside Boundary Condition
  ,                                       !- Outside Boundary Condition Object
  SunExposed,                             !- Sun Exposure
  WindExposed,                            !- Wind Exposure
  ,                                       !- View Factor to Ground
  ,                                       !- Number of Vertices
  0, 11.155, 2.5,                         !- X,Y,Z Vertex 1 {m}
  0, 11.155, 0,                           !- X,Y,Z Vertex 2 {m}
  0, 0, 0,                                !- X,Y,Z Vertex 3 {m}
  0, 0, 2.5;                              !- X,Y,Z Vertex 4 {m}

OS:Surface,