
OS:Version,
  {2ab90c40-42e0-46ef-be94-ab79eb32ccc3}, !- Handle
  1.7.0;                                  !- Version Identifier

OS:Space,
  {f811a32c-9e6a-4315-9ae0-ceca3574a114}, !- Handle
  building1,                              !- Name
  ,                                       !- Space Type Name
  ,                                       !- Default Construction Set Name
  ,                                       !- Default Schedule Set Name
  -0,                                     !- Direction of Relative North {deg}
  10,                                     !- X Origin {m}
  -10,                                    !- Y Origin {m}
  0,                                      !- Z Origin {m}
  ,                                       !- Building Story Name
  {9b68d19c-3649-402f-92f0-3a5afa2f4321}; !- Thermal Zone Name

OS:Surface,
  {6decebd6-3df5-49a0-9c09-813910c8a45e}, !- Handle
  Surface 2,                              !- Name
  Wall,                                   !- Surface Type
  ,                                       !- Construction Name
  {f811a32c-9e6a-4315-9ae0-ceca3574a114}, !- Space Name
  Outdoors,                               !- Outside Boundary Condition
  ,                                       !- Outside Boundary Condition Object
  SunExposed,                             !- Sun Exposure
  WindExposed,                            !- Wind Exposure
  ,                                       !- View Factor to Ground
  ,                                       !- Number of Vertices
  5, 0, 1.3125,                           !- X,Y,Z Vertex 1 {m}
  5, 0, 0,                                !- X,Y,Z Vertex 2 {m}
  0, 0, 0,                                !- X,Y,Z Vertex 3 {m}
  0, 0, 1.3125;                           !- X,Y,Z Vertex 4 {m}

OS:Surface,
  {6a661b59-8f28-43d2-a7a5-f2da0f8826db}, !- Handle
  Surface 3,                              !- Name
  Wall,                                   !- Surface Type
  ,                                       !- Construction Name
  {f811a32c-9e6a-4315-9ae0-ceca3574a114}, !- Space Name
  Outdoors,                               !- Outside Boundary Condition
  ,                                       !- Outside Boundary Condition Object
  SunExposed,                             !- Sun Exposure
  WindExposed,                            !- Wind Exposure
  ,                                       !- View Factor to Ground
  ,                                       !- Number of Vertices
  5, -5, 1.3125,                          !- X,Y,Z Vertex 1 {m}
  5, -5, 0,                               !- X,Y,Z Vertex 2 {m}
  5, 0, 0,                                !- X,Y,Z Vertex 3 {m}
  5, 0, 1.3125;                           !- X,Y,Z Vertex 4 {m}

OS:Surface,
  {f963c36c-6b1c-4be0-ac63-0ade004f7e3f}, !- Handle
  Surface 4,                              !- Name
  Wall,                                   !- Surface Type
  ,                                       !- Construction Name
  {f811a32c-9e6a-4315-9ae0-ceca3574a114}, !- Space Name
  Outdoors,                               !- Outside Boundary Condition
  ,                                       !- Outside Boundary Condition Object
  SunExposed,                             !- Sun Exposure
  WindExposed,                            !- Wind Exposure
  ,                                       !- View Factor to Ground
  ,                                       !- Number of Vertices
  0, -5, 1.3125,                          !- X,Y,Z Vertex 1 {m}
  0, -5, 0,                               !- X,Y,Z Vertex 2 {m}
  5, -5, 0,                               !- X,Y,Z Vertex 3 {m}
  5, -5, 1.3125;                          !- X,Y,Z Vertex 4 {m}

OS:Surface,
  {389e8ec1-1da5-4b73-9102-5c55abd745f2}, !- Handle
  Surface 5,                              !- Name
  Wall,                                   !- Surface Type
  ,                                       !- Construction Name
  {f811a32c-9e6a-4315-9ae0-ceca3574a114}, !- Space Name
  Outdoors,                               !- Outside Boundary Condition
  ,                                       !- Outside Boundary Condition Object
  SunExposed,                             !- Sun Exposure
  WindExposed,                            !- Wind Exposure
  ,                                       !- View Factor to Ground
  ,                                       !- Number of Vertices
  0, 0, 1.3125,                           !- X,Y,Z Vertex 1 {m}
  0, 0, 0,                                !- X,Y,Z Vertex 2 {m}
  0, -5, 0,                               !- X,Y,Z Vertex 3 {m}
  0, -5, 1.3125;                          !- X,Y,Z Vertex 4 {m}

OS:Surface,
  {b6aacc3f-97b8-48fd-b634-898db1687535}, !- Handle
  Surface 6,                              !- Name
  RoofCeiling,                            !- Surface Type
  ,                                       !- Construction Name
  {f811a32c-9e6a-4315-9ae0-ceca3574a114}, !- Space Name
  Outdoors,                               !- Outside Boundary Condition
  ,                                       !- Outside Boundary Condition Object
  SunExposed,                             !- Sun Exposure
  WindExposed,                            !- Wind Exposure
  ,                                       !- View Factor to Ground
  ,                                       !- Number of Vertices
  5, -5, 1.3125,                          !- X,Y,Z Vertex 1 {m}
  5, 0, 1.3125,                           !- X,Y,Z Vertex 2 {m}
  0, 0, 1.3125,                           !- X,Y,Z Vertex 3 {m}
  0, -5, 1.3125;                          !- X,Y,Z Vertex 4 {m}

OS:Space,
  {cc2d64ed-9bb8-4509-b70a-791325a0acc0}, !- Handle
  building1 1,                            !- Name
  ,                                       !- Space Type Name
  ,                                       !- Default Construction Set Name
  ,                                       !- Default Schedule Set Name
  -0,                                     !- Direction of Relative North {deg}
  10,                                     !- X Origin {m}
  -15,                                    !- Y Origin {m}
  0,                                      !- Z Origin {m}
  ,                                       !- Building Story Name
  {f6f0e0d6-f86d-444d-9fa2-cb9d17ee8112}; !- Thermal Zone Name

OS:Surface,
  {8469a0a6-1e35-45d2-9b62-7d516a764365}, !- Handle
  Surface 9,                              !- Name
  Wall,                                   !- Surface Type
  ,                                       !- Construction Name
  {cc2d64ed-9bb8-4509-b70a-791325a0acc0}, !- Space Name
  Outdoors,                               !- Outside Boundary Condition
  ,                                       !- Outside Boundary Condition Object
  SunExposed,                             !- Sun Exposure
  WindExposed,                            !- Wind Exposure
  ,                                       !- View Factor to Ground
  ,                                       !- Number of Vertices
  5, -5, 1.3125,                          !- X,Y,Z Vertex 1 {m}
  5, -5, 0,                               !- X,Y,Z Vertex 2 {m}
  5, 0, 0,                                !- X,Y,Z Vertex 3 {m}
  5, 0, 1.3125;                           !- X,Y,Z Vertex 4 {m}

OS:Surface,
  {f3c85678-53a0-4168-9920-ae140dbd0da3}, !- Handle
  Surface 10,                             !- Name
  Wall,                                   !- Surface Type
  ,                                       !- Construction Name
  {cc2d64ed-9bb8-4509-b70a-791325a0acc0}, !- Space Name
  Outdoors,                               !- Outside Boundary Condition
  ,                                       !- Outside Boundary Condition Object
  SunExposed,                             !- Sun Exposure
  WindExposed,                            !- Wind Exposure
  ,                                       !- View Factor to Ground
  ,                                       !- Number of Vertices
  0, -5, 1.3125,                          !- X,Y,Z Vertex 1 {m}
  0, -5, 0,                               !- X,Y,Z Vertex 2 {m}
  5, -5, 0,                               !- X,Y,Z Vertex 3 {m}
  5, -5, 1.3125;                          !- X,Y,Z Vertex 4 {m}

OS:Surface,
  {801fc411-e2b4-4a16-93ce-e091dd1bb39a}, !- Handle
  Surface 11,                             !- Name
  Wall,                                   !- Surface Type
  ,                                       !- Construction Name
  {cc2d64ed-9bb8-4509-b70a-791325a0acc0}, !- Space Name
  Outdoors,                               !- Outside Boundary Condition
  ,                                       !- Outside Boundary Condition Object
  SunExposed,                             !- Sun Exposure
  WindExposed,                            !- Wind Exposure
  ,                                       !- View Factor to Ground
  ,                                       !- Number of Vertices
  0, 0, 1.3125,                           !- X,Y,Z Vertex 1 {m}
  0, 0, 0,                                !- X,Y,Z Vertex 2 {m}
  0, -5, 0,                               !- X,Y,Z Vertex 3 {m}
  0, -5, 1.3125;                          !- X,Y,Z Vertex 4 {m}

OS:Surface,
  {626b75e1-020d-4b5f-928a-64bba9f56820}, !- Handle
  Surface 12,                             !- Name
  RoofCeiling,                            !- Surface Type
  ,                                       !- Construction Name
  {cc2d64ed-9bb8-4509-b70a-791325a0acc0}, !- Space Name
  Outdoors,                               !- Outside Boundary Condition
  ,                                       !- Outside Boundary Condition Object
  SunExposed,                             !- Sun Exposure
  WindExposed,                            !- Wind Exposure
  ,                                       !- View Factor to Ground
  ,                                       !- Number of Vertices
  5, -5, 1.3125,                          !- X,Y,Z Vertex 1 {m}
  5, 0, 1.3125,                           !- X,Y,Z Vertex 2 {m}
  0, 0, 1.3125,                           !- X,Y,Z Vertex 3 {m}
  0, -5, 1.3125;                          !- X,Y,Z Vertex 4 {m}

OS:Space,
  {fbb40961-141a-4d78-87b6-5f9a3aa73fb0}, !- Handle
  building1 2,                            !- Name
  ,                                       !- Space Type Name
  ,                                       !- Default Construction Set Name
  ,                                       !- Default Schedule Set Name
  -0,                                     !- Direction of Relative North {deg}
  15,                                     !- X Origin {m}
  -10,                                    !- Y Origin {m}
  0,                                      !- Z Origin {m}
  ,                                       !- Building Story Name
  {6526475f-9f06-4d05-b653-cd4ab1ebaa0b}; !- Thermal Zone Name

OS:Surface,
  {60be7dc9-c7bb-405b-adcd-e304579c8fd7}, !- Handle
  Surface 14,                             !- Name
  Wall,                                   !- Surface Type
  ,                                       !- Construction Name
  {fbb40961-141a-4d78-87b6-5f9a3aa73fb0}, !- Space Name
  Outdoors,                               !- Outside Boundary Condition
  ,                                       !- Outside Boundary Condition Object
  SunExposed,                             !- Sun Exposure
  WindExposed,                            !- Wind Exposure
  ,                                       !- View Factor to Ground
  ,                                       !- Number of Vertices
  5, 0, 1.3125,                           !- X,Y,Z Vertex 1 {m}
  5, 0, 0,                                !- X,Y,Z Vertex 2 {m}
  0, 0, 0,                                !- X,Y,Z Vertex 3 {m}
  0, 0, 1.3125;                           !- X,Y,Z Vertex 4 {m}

OS:Surface,
  {47e1773d-513a-4146-8138-57b32649d3ff}, !- Handle
  Surface 15,                             !- Name
  Wall,                                   !- Surface Type
  ,                                       !- Construction Name
  {fbb40961-141a-4d78-87b6-5f9a3aa73fb0}, !- Space Name
  Outdoors,                               !- Outside Boundary Condition
  ,                                       !- Outside Boundary Condition Object
  SunExposed,                             !- Sun Exposure
  WindExposed,                            !- Wind Exposure
  ,                                       !- View Factor to Ground
  ,                                       !- Number of Vertices
  5, -5, 1.3125,                          !- X,Y,Z Vertex 1 {m}
  5, -5, 0,                               !- X,Y,Z Vertex 2 {m}
  5, 0, 0,                                !- X,Y,Z Vertex 3 {m}
  5, 0, 1.3125;                           !- X,Y,Z Vertex 4 {m}

OS:Surface,
  {6525a487-7bc9-4013-b8dd-dc34df23fab4}, !- Handle
  Surface 16,                             !- Name
  Wall,                                   !- Surface Type
  ,                                       !- Construction Name
  {fbb40961-141a-4d78-87b6-5f9a3aa73fb0}, !- Space Name
  Outdoors,                               !- Outside Boundary Condition
  ,                                       !- Outside Boundary Condition Object
  SunExposed,                             !- Sun Exposure
  WindExposed,                            !- Wind Exposure
  ,                                       !- View Factor to Ground
  ,                                       !- Number of Vertices
  0, -5, 1.3125,                          !- X,Y,Z Vertex 1 {m}
  0, -5, 0,                               !- X,Y,Z Vertex 2 {m}
  5, -5, 0,                               !- X,Y,Z Vertex 3 {m}
  5, -5, 1.3125;                          !- X,Y,Z Vertex 4 {m}

OS:Surface,
  {9c303f5b-755e-46de-808b-a5c105d32fbf}, !- Handle
  Surface 18,                             !- Name
  RoofCeiling,                            !- Surface Type
  ,                                       !- Construction Name
  {fbb40961-141a-4d78-87b6-5f9a3aa73fb0}, !- Space Name
  Outdoors,                               !- Outside Boundary Condition
  ,                                       !- Outside Boundary Condition Object
  SunExposed,                             !- Sun Exposure
  WindExposed,                            !- Wind Exposure
  ,                                       !- View Factor to Ground
  ,                                       !- Number of Vertices
  5, -5, 1.3125,                          !- X,Y,Z Vertex 1 {m}
  5, 0, 1.3125,                           !- X,Y,Z Vertex 2 {m}
  0, 0, 1.3125,                           !- X,Y,Z Vertex 3 {m}
  0, -5, 1.3125;                          !- X,Y,Z Vertex 4 {m}

OS:Space,
  {e7e7d03a-380a-4dea-9108-c8563cd45e82}, !- Handle
  building1 3,                            !- Name
  ,                                       !- Space Type Name
  ,                                       !- Default Construction Set Name
  ,                                       !- Default Schedule Set Name
  -0,                                     !- Direction of Relative North {deg}
  15,                                     !- X Origin {m}
  -15,                                    !- Y Origin {m}
  0,                                      !- Z Origin {m}
  ,                                       !- Building Story Name
  {b32aca7d-3ab5-485e-b80e-dc22078fc5f5}; !- Thermal Zone Name

OS:Surface,
  {dffda028-9ca0-4741-8fdb-2b60d2ef498c}, !- Handle
  Surface 21,                             !- Name
  Wall,                                   !- Surface Type
  ,                                       !- Construction Name
  {e7e7d03a-380a-4dea-9108-c8563cd45e82}, !- Space Name
  Outdoors,                               !- Outside Boundary Condition
  ,                                       !- Outside Boundary Condition Object
  SunExposed,                             !- Sun Exposure
  WindExposed,                            !- Wind Exposure
  ,                                       !- View Factor to Ground
  ,                                       !- Number of Vertices
  5, -5, 1.3125,                          !- X,Y,Z Vertex 1 {m}
  5, -5, 0,                               !- X,Y,Z Vertex 2 {m}
  5, 0, 0,                                !- X,Y,Z Vertex 3 {m}
  5, 0, 1.3125;                           !- X,Y,Z Vertex 4 {m}

OS:Surface,
  {74e7e888-e23e-4a30-ac51-e19469c162de}, !- Handle
  Surface 22,                             !- Name
  Wall,                                   !- Surface Type
  ,                                       !- Construction Name
  {e7e7d03a-380a-4dea-9108-c8563cd45e82}, !- Space Name
  Outdoors,                               !- Outside Boundary Condition
  ,                                       !- Outside Boundary Condition Object
  SunExposed,                             !- Sun Exposure
  WindExposed,                            !- Wind Exposure
  ,                                       !- View Factor to Ground
  ,                                       !- Number of Vertices
  0, -5, 1.3125,                          !- X,Y,Z Vertex 1 {m}
  0, -5, 0,                               !- X,Y,Z Vertex 2 {m}
  5, -5, 0,                               !- X,Y,Z Vertex 3 {m}
  5, -5, 1.3125;                          !- X,Y,Z Vertex 4 {m}

OS:Space,
  {eec92ab5-5b96-4f59-aa86-bc319883562f}, !- Handle
  building1 4,                            !- Name
  ,                                       !- Space Type Name
  ,                                       !- Default Construction Set Name
  ,                                       !- Default Schedule Set Name
  -0,                                     !- Direction of Relative North {deg}
  10,                                     !- X Origin {m}
  -10,                                    !- Y Origin {m}
  1.3125,                                 !- Z Origin {m}
  ,                                       !- Building Story Name
  {b285a0fb-2bce-4b4f-9734-d6e52637b76a}; !- Thermal Zone Name

OS:Surface,
  {47db27af-9471-4fe3-869c-490aee54d919}, !- Handle
  Surface 26,                             !- Name
  Wall,                                   !- Surface Type
  ,                                       !- Construction Name
  {eec92ab5-5b96-4f59-aa86-bc319883562f}, !- Space Name
  Outdoors,                               !- Outside Boundary Condition
  ,                                       !- Outside Boundary Condition Object
  SunExposed,                             !- Sun Exposure
  WindExposed,                            !- Wind Exposure
  ,                                       !- View Factor to Ground
  ,                                       !- Number of Vertices
  5, 0, 0.875,                            !- X,Y,Z Vertex 1 {m}
  5, 0, 0,                                !- X,Y,Z Vertex 2 {m}
  0, 0, 0,                                !- X,Y,Z Vertex 3 {m}
  0, 0, 0.875;                            !- X,Y,Z Vertex 4 {m}

OS:Surface,
  {e0c3cc71-cce1-46fd-96b2-d2caa9cfb546}, !- Handle
  Surface 27,                             !- Name
  Wall,                                   !- Surface Type
  ,                                       !- Construction Name
  {eec92ab5-5b96-4f59-aa86-bc319883562f}, !- Space Name
  Outdoors,                               !- Outside Boundary Condition
  ,                                       !- Outside Boundary Condition Object
  SunExposed,                             !- Sun Exposure
  WindExposed,                            !- Wind Exposure
  ,                                       !- View Factor to Ground
  ,                                       !- Number of Vertices
  5, -5, 0.875,                           !- X,Y,Z Vertex 1 {m}
  5, -5, 0,                               !- X,Y,Z Vertex 2 {m}
  5, 0, 0,                                !- X,Y,Z Vertex 3 {m}
  5, 0, 0.875;                            !- X,Y,Z Vertex 4 {m}

OS:Surface,
  {9a853deb-eeaa-4aaf-a5f0-6f8d849149d1}, !- Handle
  Surface 29,                             !- Name
  Wall,                                   !- Surface Type
  ,                                       !- Construction Name
  {eec92ab5-5b96-4f59-aa86-bc319883562f}, !- Space Name
  Outdoors,                               !- Outside Boundary Condition
  ,                                       !- Outside Boundary Condition Object
  SunExposed,                             !- Sun Exposure
  WindExposed,                            !- Wind Exposure
  ,                                       !- View Factor to Ground
  ,                                       !- Number of Vertices
  0, 0, 0.875,                            !- X,Y,Z Vertex 1 {m}
  0, 0, 0,                                !- X,Y,Z Vertex 2 {m}
  0, -5, 0,                               !- X,Y,Z Vertex 3 {m}
  0, -5, 0.875;                           !- X,Y,Z Vertex 4 {m}

OS:Space,
  {5c00a186-1ce2-4197-b628-81e87357a530}, !- Handle
  building1 5,                            !- Name
  ,                                       !- Space Type Name
  ,                                       !- Default Construction Set Name
  ,                                       !- Default Schedule Set Name
  -0,                                     !- Direction of Relative North {deg}
  10,                                     !- X Origin {m}
  -15,                                    !- Y Origin {m}
  1.3125,                                 !- Z Origin {m}
  ,                                       !- Building Story Name
  {fd6529d0-8a0b-423a-9f92-45819fc4e4fa}; !- Thermal Zone Name

OS:Surface,
  {be78471f-9d92-44a7-a6c6-1609768f06b3}, !- Handle
  Surface 32,                             !- Name
  Wall,                                   !- Surface Type
  ,                                       !- Construction Name
  {5c00a186-1ce2-4197-b628-81e87357a530}, !- Space Name
  Outdoors,                               !- Outside Boundary Condition
  ,                                       !- Outside Boundary Condition Object
  SunExposed,                             !- Sun Exposure
  WindExposed,                            !- Wind Exposure
  ,                                       !- View Factor to Ground
  ,                                       !- Number of Vertices
  5, 0, 0.875,                            !- X,Y,Z Vertex 1 {m}
  5, 0, 0,                                !- X,Y,Z Vertex 2 {m}
  0, 0, 0,                                !- X,Y,Z Vertex 3 {m}
  0, 0, 0.875;                            !- X,Y,Z Vertex 4 {m}

OS:Surface,
  {7bfb284e-4b0b-4374-b4c8-d8deb90ebdb5}, !- Handle
  Surface 34,                             !- Name
  Wall,                                   !- Surface Type
  ,                                       !- Construction Name
  {5c00a186-1ce2-4197-b628-81e87357a530}, !- Space Name
  Outdoors,                               !- Outside Boundary Condition
  ,                                       !- Outside Boundary Condition Object
  SunExposed,                             !- Sun Exposure
  WindExposed,                            !- Wind Exposure
  ,                                       !- View Factor to Ground
  ,                                       !- Number of Vertices
  0, -5, 0.875,                           !- X,Y,Z Vertex 1 {m}
  0, -5, 0,                               !- X,Y,Z Vertex 2 {m}
  5, -5, 0,                               !- X,Y,Z Vertex 3 {m}
  5, -5, 0.875;                           !- X,Y,Z Vertex 4 {m}

OS:Surface,
  {69e045d6-7303-46aa-bd0d-6cc4ee9b0dce}, !- Handle
  Surface 35,                             !- Name
  Wall,                                   !- Surface Type
  ,                                       !- Construction Name
  {5c00a186-1ce2-4197-b628-81e87357a530}, !- Space Name
  Outdoors,                               !- Outside Boundary Condition
  ,                                       !- Outside Boundary Condition Object
  SunExposed,                             !- Sun Exposure
  WindExposed,                            !- Wind Exposure
  ,                                       !- View Factor to Ground
  ,                                       !- Number of Vertices
  0, 0, 0.875,                            !- X,Y,Z Vertex 1 {m}
  0, 0, 0,                                !- X,Y,Z Vertex 2 {m}
  0, -5, 0,                               !- X,Y,Z Vertex 3 {m}
  0, -5, 0.875;                           !- X,Y,Z Vertex 4 {m}

OS:Space,
  {83050ee2-5cd6-44aa-a19b-aeec81bc0dbb}, !- Handle
  building1 6,                            !- Name
  ,                                       !- Space Type Name
  ,                                       !- Default Construction Set Name
  ,                                       !- Default Schedule Set Name
  -0,                                     !- Direction of Relative North {deg}
  15,                                     !- X Origin {m}
  -10,                                    !- Y Origin {m}
  1.3125,                                 !- Z Origin {m}
  ,                                       !- Building Story Name
  {f8cce1f4-0fe2-4aa3-b081-f13c28462795}; !- Thermal Zone Name

OS:Surface,
  {d1d4e4d2-93a9-473b-a231-9b6915b28668}, !- Handle
  Surface 38,                             !- Name
  Wall,                                   !- Surface Type
  ,                                       !- Construction Name
  {83050ee2-5cd6-44aa-a19b-aeec81bc0dbb}, !- Space Name
  Outdoors,                               !- Outside Boundary Condition
  ,                                       !- Outside Boundary Condition Object
  SunExposed,                             !- Sun Exposure
  WindExposed,                            !- Wind Exposure
  ,                                       !- View Factor to Ground
  ,                                       !- Number of Vertices
  5, 0, 0.875,                            !- X,Y,Z Vertex 1 {m}
  5, 0, 0,                                !- X,Y,Z Vertex 2 {m}
  0, 0, 0,                                !- X,Y,Z Vertex 3 {m}
  0, 0, 0.875;                            !- X,Y,Z Vertex 4 {m}

OS:Surface,
  {a49e8f59-77c6-493b-9908-3cf4ea517145}, !- Handle
  Surface 39,                             !- Name
  Wall,                                   !- Surface Type
  ,                                       !- Construction Name
  {83050ee2-5cd6-44aa-a19b-aeec81bc0dbb}, !- Space Name
  Outdoors,                               !- Outside Boundary Condition
  ,                                       !- Outside Boundary Condition Object
  SunExposed,                             !- Sun Exposure
  WindExposed,                            !- Wind Exposure
  ,                                       !- View Factor to Ground
  ,                                       !- Number of Vertices
  5, -5, 0.875,                           !- X,Y,Z Vertex 1 {m}
  5, -5, 0,                               !- X,Y,Z Vertex 2 {m}
  5, 0, 0,                                !- X,Y,Z Vertex 3 {m}
  5, 0, 0.875;                            !- X,Y,Z Vertex 4 {m}

OS:Surface,
  {721ffc22-b3f2-4a24-9b09-e31c1a91ee41}, !- Handle
  Surface 40,                             !- Name
  Wall,                                   !- Surface Type
  ,                                       !- Construction Name
  {83050ee2-5cd6-44aa-a19b-aeec81bc0dbb}, !- Space Name
  Outdoors,                               !- Outside Boundary Condition
  ,                                       !- Outside Boundary Condition Object
  SunExposed,                             !- Sun Exposure
  WindExposed,                            !- Wind Exposure
  ,                                       !- View Factor to Ground
  ,                                       !- Number of Vertices
  0, -5, 0.875,                           !- X,Y,Z Vertex 1 {m}
  0, -5, 0,                               !- X,Y,Z Vertex 2 {m}
  5, -5, 0,                               !- X,Y,Z Vertex 3 {m}
  5, -5, 0.875;                           !- X,Y,Z Vertex 4 {m}

OS:Space,
  {bef6390c-8f0f-4e1a-926c-b2ecf5cb98d0}, !- Handle
  building1 7,                            !- Name
  ,                                       !- Space Type Name
  ,                                       !- Default Construction Set Name
  ,                                       !- Default Schedule Set Name
  -0,                                     !- Direction of Relative North {deg}
  15,                                     !- X Origin {m}
  -15,                                    !- Y Origin {m}
  1.3125,                                 !- Z Origin {m}
  ,                                       !- Building Story Name
  {5c899c07-b4e5-4510-ba33-498a9e89a12c}; !- Thermal Zone Name

OS:Surface,
  {9e90ba75-7585-4755-89a8-00ade4a1ed22}, !- Handle
  Surface 45,                             !- Name
  Wall,                                   !- Surface Type
  ,                                       !- Construction Name
  {bef6390c-8f0f-4e1a-926c-b2ecf5cb98d0}, !- Space Name
  Outdoors,                               !- Outside Boundary Condition
  ,                                       !- Outside Boundary Condition Object
  SunExposed,                             !- Sun Exposure
  WindExposed,                            !- Wind Exposure
  ,                                       !- View Factor to Ground
  ,                                       !- Number of Vertices
  5, -5, 0.875,                           !- X,Y,Z Vertex 1 {m}
  5, -5, 0,                               !- X,Y,Z Vertex 2 {m}
  5, 0, 0,                                !- X,Y,Z Vertex 3 {m}
  5, 0, 0.875;                            !- X,Y,Z Vertex 4 {m}

OS:Surface,
  {62e4923a-5fdb-4c06-9fe9-f56aac2d5554}, !- Handle
  Surface 46,                             !- Name
  Wall,                                   !- Surface Type
  ,                                       !- Construction Name
  {bef6390c-8f0f-4e1a-926c-b2ecf5cb98d0}, !- Space Name
  Outdoors,                               !- Outside Boundary Condition
  ,                                       !- Outside Boundary Condition Object
  SunExposed,                             !- Sun Exposure
  WindExposed,                            !- Wind Exposure