
OS:Version,
  {3eda5400-908a-4602-81fa-2c4af6f6162a}, !- Handle
  1.7.0;                                  !- Version Identifier

OS:BuildingStory,
  {3e8b8c9c-9983-409f-8840-d62f52fb8cee}, !- Handle
  Rectangle:Story 1,                      !- Name
  0,                                      !- Nominal Z Coordinate {m}
  1.24875,                                !- Nominal Floor to Floor Height {m}
  ,                                       !- Default Construction Set Name
  ,                                       !- Default Schedule Set Name
  ;                                       !- Group Rendering Name

OS:Space,
  {1f7f2894-29d4-47bd-a2b6-4cb76717cfae}, !- Handle
  0 Core Space,                           !- Name
  ,                                       !- Space Type Name
  ,                                       !- Default Construction Set Name
  ,                                       !- Default Schedule Set Name
  -0,                                     !- Direction of Relative North {deg}
  51.7248610437959,                       !- X Origin {m}
  100.996061556875,                       !- Y Origin {m}
  0,                                      !- Z Origin {m}
  {3e8b8c9c-9983-409f-8840-d62f52fb8cee}, !- Building Story Name
  {0887cc92-5f15-4727-b9f1-ba346527a315}; !- Thermal Zone Name

OS:Surface,
  {82aa0703-0df5-4f21-8cbe-c062124a222b}, !- Handle
  Rectangle:material:0:0.0: 1,            !- Name
  Floor,                                  !- Surface Type
  ,                                       !- Construction Name
  {1f7f2894-29d4-47bd-a2b6-4cb76717cfae}, !- Space Name
  Ground,                                 !- Outside Boundary Condition
  ,                                       !- Outside Boundary Condition Object
  NoSun,                                  !- Sun Exposure
  NoWind,                                 !- Wind Exposure
  ,                                       !- View Factor to Ground
  ,                                       !- Number of Vertices
  -4.2632564145606e-14, 4.12114786740858e-13, 0, !- X,Y,Z Vertex 1 {m}
  8.27456355344496, -8.27456355344499, 0, !- X,Y,Z Vertex 2 {m}
  16.54912710689, -16.54912710689, 0,     !- X,Y,Z Vertex 3 {m}
  24.823690660335, -24.8236906603349, 0,  !- X,Y,Z Vertex 4 {m}
  33.09825421378, -33.0982542137799, 0,   !- X,Y,Z Vertex 5 {m}
  41.3728177672249, -41.3728177672249, 0, !- X,Y,Z Vertex 6 {m}
  33.7673792592913, -48.9782562751585, 0, !- X,Y,Z Vertex 7 {m}
  26.1619407513578, -56.5836947830921, 0, !- X,Y,Z Vertex 8 {m}
  18.5565022434242, -64.1891332910257, 0, !- X,Y,Z Vertex 9 {m}
  10.9510637354906, -71.7945717989593, 0, !- X,Y,Z Vertex 10 {m}
  3.34562522755696, -79.4000103068929, 0, !- X,Y,Z Vertex 11 {m}
  -4.25981328037664, -87.0054488148265, 0, !- X,Y,Z Vertex 12 {m}
  -11.8652517883102, -94.6108873227601, 0, !- X,Y,Z Vertex 13 {m}
  -20.1398153417552, -86.3363237693151, 0, !- X,Y,Z Vertex 14 {m}
  -28.4143788952002, -78.0617602158701, 0, !- X,Y,Z Vertex 15 {m}
  -36.6889424486452, -69.7871966624251, 0, !- X,Y,Z Vertex 16 {m}
  -44.9635060020902, -61.5126331089802, 0, !- X,Y,Z Vertex 17 {m}
  -53.2380695555352, -53.2380695555352, 0, !- X,Y,Z Vertex 18 {m}
  -45.6326310476016, -45.6326310476016, 0, !- X,Y,Z Vertex 19 {m}
  -38.0271925396679, -38.027192539668, 0, !- X,Y,Z Vertex 20 {m}
  -30.4217540317343, -30.4217540317344, 0, !- X,Y,Z Vertex 21 {m}
  -22.8163155238007, -22.8163155238008, 0, !- X,Y,Z Vertex 22 {m}
  -15.2108770158672, -15.2108770158672, 0, !- X,Y,Z Vertex 23 {m}
  -7.60543850793364, -7.6054385079336, 0; !- X,Y,Z Vertex 24 {m}

OS:Surface,
  {bf5c1b22-22f8-4710-ad94-3a3ae5b5ee54}, !- Handle
  Rectangle:material:0:0.0: 2,            !- Name
  Wall,                                   !- Surface Type
  ,                                       !- Construction Name
  {1f7f2894-29d4-47bd-a2b6-4cb76717cfae}, !- Space Name
  Outdoors,                               !- Outside Boundary Condition
  ,                                       !- Outside Boundary Condition Object
  SunExposed,                             !- Sun Exposure
  WindExposed,                            !- Wind Exposure
  ,                                       !- View Factor to Ground
  ,                                       !- Number of Vertices
  8.27456355344496, -8.27456355344499, 1.24875, !- X,Y,Z Vertex 1 {m}
  8.27456355344496, -8.27456355344499, 0, !- X,Y,Z Vertex 2 {m}
  -4.2632564145606e-14, 4.12114786740858e-13, 0, !- X,Y,Z Vertex 3 {m}
  -4.2632564145606e-14, 4.12114786740858e-13, 1.24875; !- X,Y,Z Vertex 4 {m}

OS:Surface,
  {a156525a-bad0-4834-bbcb-e3848a1fa267}, !- Handle
  Rectangle:material:0:0.0: 3,            !- Name
  Wall,                                   !- Surface Type
  ,                                       !- Construction Name
  {1f7f2894-29d4-47bd-a2b6-4cb76717cfae}, !- Space Name
  Outdoors,                               !- Outside Boundary Condition
  ,                                       !- Outside Boundary Condition Object
  SunExposed,                             !- Sun Exposure
  WindExposed,                            !- Wind Exposure
  ,                                       !- View Factor to Ground
  ,                                       !- Number of Vertices
  16.54912710689, -16.54912710689, 1.24875, !- X,Y,Z Vertex 1 {m}
  16.54912710689, -16.54912710689, 0,     !- X,Y,Z Vertex 2 {m}
  8.27456355344496, -8.27456355344499, 0, !- X,Y,Z Vertex 3 {m}
  8.27456355344496, -8.27456355344499, 1.24875; !- X,Y,Z Vertex 4 {m}

OS:Surface,
  {4ad77bc4-3e2e-4a1a-843b-a31b214b4924}, !- Handle
  Rectangle:material:0:0.0: 4,            !- Name
  Wall,                                   !- Surface Type
  ,                                       !- Construction Name
  {1f7f2894-29d4-47bd-a2b6-4cb76717cfae}, !- Space Name
  Outdoors,                               !- Outside Boundary Condition
  ,                                       !- Outside Boundary Condition Object
  SunExposed,                             !- Sun Exposure
  WindExposed,                            !- Wind Exposure
  ,                                       !- View Factor to Ground
  ,                                       !- Number of Vertices
  24.823690660335, -24.8236906603349, 1.24875, !- X,Y,Z Vertex 1 {m}
  24.823690660335, -24.8236906603349, 0,  !- X,Y,Z Vertex 2 {m}
  16.54912710689, -16.54912710689, 0,     !- X,Y,Z Vertex 3 {m}
  16.54912710689, -16.54912710689, 1.24875; !- X,Y,Z Vertex 4 {m}

OS:Surface,
  {97ef3e51-565b-42a8-894a-e0bc3068b7e4}, !- Handle
  Rectangle:material:0:0.0: 5,            !- Name
  Wall,                                   !- Surface Type
  ,                                       !- Construction Name
  {1f7f2894-29d4-47bd-a2b6-4cb76717cfae}, !- Space Name
  Outdoors,                               !- Outside Boundary Condition
  ,                                       !- Outside Boundary Condition Object
  SunExposed,                             !- Sun Exposure
  WindExposed,                            !- Wind Exposure
  ,                                       !- View Factor to Ground
  ,                                       !- Number of Vertices
  33.09825421378, -33.0982542137799, 1.24875, !- X,Y,Z Vertex 1 {m}
  33.09825421378, -33.0982542137799, 0,   !- X,Y,Z Vertex 2 {m}
  24.823690660335, -24.8236906603349, 0,  !- X,Y,Z Vertex 3 {m}
  24.823690660335, -24.8236906603349, 1.24875; !- X,Y,Z Vertex 4 {m}

OS:Surface,
  {040f41e8-a671-47b0-9804-2bca6da3e8ab}, !- Handle
  Rectangle:material:0:0.0: 6,            !- Name
  Wall,                                   !- Surface Type
  ,                                       !- Construction Name
  {1f7f2894-29d4-47bd-a2b6-4cb76717cfae}, !- Space Name
  Outdoors,                               !- Outside Boundary Condition
  ,                                       !- Outside Boundary Condition Object
  SunExposed,                             !- Sun Exposure
  WindExposed,                            !- Wind Exposure
  ,                                       !- View Factor to Ground
  ,                                       !- Number of Vertices
  41.3728177672249, -41.3728177672249, 1.24875, !- X,Y,Z Vertex 1 {m}
  41.3728177672249, -41.3728177672249, 0, !- X,Y,Z Vertex 2 {m}
  33.09825421378, -33.0982542137799, 0,   !- X,Y,Z Vertex 3 {m}
  33.09825421378, -33.0982542137799, 1.24875; !- X,Y,Z Vertex 4 {m}

OS:Surface,
  {5d7f52f3-5bac-41cc-9215-5508e46d9a13}, !- Handle
  Rectangle:material:0:0.0: 7,            !- Name
  Wall,                                   !- Surface Type
  ,                                       !- Construction Name
  {1f7f2894-29d4-47bd-a2b6-4cb76717cfae}, !- Space Name
  Outdoors,                               !- Outside Boundary Condition
  ,                                       !- Outside Boundary Condition Object
  SunExposed,                             !- Sun Exposure
  WindExposed,                            !- Wind Exposure
  ,                                       !- View Factor to Ground
  ,                                       !- Number of Vertices
  33.7673792592913, -48.9782562751585, 1.24875, !- X,Y,Z Vertex 1 {m}
  33.7673792592913, -48.9782562751585, 0, !- X,Y,Z Vertex 2 {m}
  41.3728177672249, -41.3728177672249, 0, !- X,Y,Z Vertex 3 {m}
  41.3728177672249, -41.3728177672249, 1.24875; !- X,Y,Z Vertex 4 {m}

OS:Surface,
  {bf26db37-3bc6-49dd-810d-047645d88e61}, !- Handle
  Rectangle:material:0:0.0: 8,            !- Name
  Wall,                                   !- Surface Type
  ,                                       !- Construction Name
  {1f7f2894-29d4-47bd-a2b6-4cb76717cfae}, !- Space Name
  Outdoors,                               !- Outside Boundary Condition
  ,                                       !- Outside Boundary Condition Object
  SunExposed,                             !- Sun Exposure
  WindExposed,                            !- Wind Exposure
  ,                                       !- View Factor to Ground
  ,                                       !- Number of Vertices
  26.1619407513578, -56.5836947830921, 1.24875, !- X,Y,Z Vertex 1 {m}
  26.1619407513578, -56.5836947830921, 0, !- X,Y,Z Vertex 2 {m}
  33.7673792592913, -48.9782562751585, 0, !- X,Y,Z Vertex 3 {m}
  33.7673792592913, -48.9782562751585, 1.24875; !- X,Y,Z Vertex 4 {m}

OS:Surface,
  {309c23c3-9e7e-4d50-b75d-7d2fb8a32123}, !- Handle
  Rectangle:material:0:0.0: 9,            !- Name
  Wall,                                   !- Surface Type
  ,                                       !- Construction Name
  {1f7f2894-29d4-47bd-a2b6-4cb76717cfae}, !- Space Name
  Outdoors,                               !- Outside Boundary Condition
  ,                                       !- Outside Boundary Condition Object
  SunExposed,                             !- Sun Exposure
  WindExposed,                            !- Wind Exposure
  ,                                       !- View Factor to Ground
  ,                                       !- Number of Vertices
  18.5565022434242, -64.1891332910257, 1.24875, !- X,Y,Z Vertex 1 {m}
  18.5565022434242, -64.1891332910257, 0, !- X,Y,Z Vertex 2 {m}
  26.1619407513578, -56.5836947830921, 0, !- X,Y,Z Vertex 3 {m}
  26.1619407513578, -56.5836947830921, 1.24875; !- X,Y,Z Vertex 4 {m}

OS:Surface,
  {04209b7e-5c80-44da-8653-ea4a3d3da3a5}, !- Handle
  Rectangle:material:0:0.0: 10,           !- Name
  Wall,                                   !- Surface Type
  ,                                       !- Construction Name
  {1f7f2894-29d4-47bd-a2b6-4cb76717cfae}, !- Space Name
  Outdoors,                               !- Outside Boundary Condition
  ,                                       !- Outside Boundary Condition Object
  SunExposed,                             !- Sun Exposure
  WindExposed,                            !- Wind Exposure
  ,                                       !- View Factor to Ground
  ,                                       !- Number of Vertices
  10.9510637354906, -71.7945717989593, 1.24875, !- X,Y,Z Vertex 1 {m}
  10.9510637354906, -71.7945717989593, 0, !- X,Y,Z Vertex 2 {m}
  18.5565022434242, -64.1891332910257, 0, !- X,Y,Z Vertex 3 {m}
  18.5565022434242, -64.1891332910257, 1.24875; !- X,Y,Z Vertex 4 {m}

OS:Surface,
  {8bc29046-9d12-4c8a-bb4e-fe4a582ebebd}, !- Handle
  Rectangle:material:0:0.0: 11,           !- Name
  Wall,                                   !- Surface Type
  ,                                       !- Construction Name
  {1f7f2894-29d4-47bd-a2b6-4cb76717cfae}, !- Space Name
  Outdoors,                               !- Outside Boundary Condition
  ,                                       !- Outside Boundary Condition Object
  SunExposed,                             !- Sun Exposure
  WindExposed,                            !- Wind Exposure
  ,                                       !- View Factor to Ground
  ,                                       !- Number of Vertices
  3.34562522755696, -79.4000103068929, 1.24875, !- X,Y,Z Vertex 1 {m}
  3.34562522755696, -79.4000103068929, 0, !- X,Y,Z Vertex 2 {m}
  10.9510637354906, -71.7945717989593, 0, !- X,Y,Z Vertex 3 {m}
  10.9510637354906, -71.7945717989593, 1.24875; !- X,Y,Z Vertex 4 {m}

OS:Surface,
  {cf372f41-26c5-4f58-bfd5-024b351387ba}, !- Handle
  Rectangle:material:0:0.0: 12,           !- Name
  Wall,                                   !- Surface Type
  ,                                       !- Construction Name
  {1f7f2894-29d4-47bd-a2b6-4cb76717cfae}, !- Space Name
  Outdoors,                               !- Outside Boundary Condition
  ,                                       !- Outside Boundary Condition Object
  SunExposed,                             !- Sun Exposure
  WindExposed,                            !- Wind Exposure
  ,                                       !- View Factor to Ground
  ,                                       !- Number of Vertices
  -4.25981328037664, -87.0054488148265, 1.24875, !- X,Y,Z Vertex 1 {m}
  -4.25981328037664, -87.0054488148265, 0, !- X,Y,Z Vertex 2 {m}
  3.34562522755696, -79.4000103068929, 0, !- X,Y,Z Vertex 3 {m}
  3.34562522755696, -79.4000103068929, 1.24875; !- X,Y,Z Vertex 4 {m}

OS:Surface,
  {c8ad99d3-c764-49a4-b3f1-d6b9ea92c39d}, !- Handle
  Rectangle:material:0:0.0: 13,           !- Name
  Wall,                                   !- Surface Type
  ,                                       !- Construction Name
  {1f7f2894-29d4-47bd-a2b6-4cb76717cfae}, !- Space Name
  Outdoors,                               !- Outside Boundary Condition
  ,                                       !- Outside Boundary Condition Object
  SunExposed,                             !- Sun Exposure
  WindExposed,                            !- Wind Exposure
  ,                                       !- View Factor to Ground
  ,                                       !- Number of Vertices
  -11.8652517883102, -94.6108873227601, 1.24875, !- X,Y,Z Vertex 1 {m}
  -11.8652517883102, -94.6108873227601, 0, !- X,Y,Z Vertex 2 {m}
  -4.25981328037664, -87.0054488148265, 0, !- X,Y,Z Vertex 3 {m}
  -4.25981328037664, -87.0054488148265, 1.24875; !- X,Y,Z Vertex 4 {m}

OS:Surface,
  {cffec113-131a-4490-88a0-33e547468c84}, !- Handle
  Rectangle:material:0:0.0: 14,           !- Name
  Wall,                                   !- Surface Type
  ,                                       !- Construction Name
  {1f7f2894-29d4-47bd-a2b6-4cb76717cfae}, !- Space Name
  Outdoors,                               !- Outside Boundary Condition
  ,                                       !- Outside Boundary Condition Object
  SunExposed,                             !- Sun Exposure
  WindExposed,                            !- Wind Exposure
  ,                                       !- View Factor to Ground
  ,                                       !- Number of Vertices
  -20.1398153417552, -86.3363237693151, 1.24875, !- X,Y,Z Vertex 1 {m}
  -20.1398153417552, -86.3363237693151, 0, !- X,Y,Z Vertex 2 {m}
  -11.8652517883102, -94.6108873227601, 0, !- X,Y,Z Vertex 3 {m}
  -11.8652517883102, -94.6108873227601, 1.24875; !- X,Y,Z Vertex 4 {m}

OS:Surface,
  {fb92f392-e278-492d-887a-8f56cbda42cb}, !- Handle
  Rectangle:material:0:0.0: 15,           !- Name
  Wall,                                   !- Surface Type
  ,                                       !- Construction Name
  {1f7f2894-29d4-47bd-a2b6-4cb76717cfae}, !- Space Name
  Outdoors,                               !- Outside Boundary Condition
  ,                                       !- Outside Boundary Condition Object
  SunExposed,                             !- Sun Exposure
  WindExposed,                            !- Wind Exposure
  ,                                       !- View Factor to Ground
  ,                                       !- Number of Vertices
  -28.4143788952002, -78.0617602158701, 1.24875, !- X,Y,Z Vertex 1 {m}
  -28.4143788952002, -78.0617602158701, 0, !- X,Y,Z Vertex 2 {m}
  -20.1398153417552, -86.3363237693151, 0, !- X,Y,Z Vertex 3 {m}
  -20.1398153417552, -86.3363237693151, 1.24875; !- X,Y,Z Vertex 4 {m}

OS:Surface,
  {28f86e99-1c36-4456-8183-1ba679019bef}, !- Handle
  Rectangle:material:0:0.0: 16,           !- Name
  Wall,                                   !- Surface Type
  ,                                       !- Construction Name
  {1f7f2894-29d4-47bd-a2b6-4cb76717cfae}, !- Space Name
  Outdoors,                               !- Outside Boundary Condition
  ,                                       !- Outside Boundary Condition Object
  SunExposed,                             !- Sun Exposure
  WindExposed,                            !- Wind Exposure
  ,                                       !- View Factor to Ground
  ,                                       !- Number of Vertices
  -36.6889424486452, -69.7871966624251, 1.24875, !- X,Y,Z Vertex 1 {m}
  -36.6889424486452, -69.7871966624251, 0, !- X,Y,Z Vertex 2 {m}
  -28.4143788952002, -78.0617602158701, 0, !- X,Y,Z Vertex 3 {m}
  -28.4143788952002, -78.0617602158701, 1.24875; !- X,Y,Z Vertex 4 {m}

OS:Surface,
  {e8d67301-db7f-4be3-8110-1aeca769a3d3}, !- Handle
  Rectangle:material:0:0.0: 17,           !- Name
  Wall,                                   !- Surface Type
  ,                                       !- Construction Name
  {1f7f2894-29d4-47bd-a2b6-4cb76717cfae}, !- Space Name
  Outdoors,                               !- Outside Boundary Condition
  ,                                       !- Outside Boundary Condition Object
  SunExposed,                             !- Sun Exposure
  WindExposed,                            !- Wind Exposure
  ,                                       !- View Factor to Ground
  ,                                       !- Number of Vertices
  -44.9635060020902, -61.5126331089802, 1.24875, !- X,Y,Z Vertex 1 {m}
  -44.9635060020902, -61.5126331089802, 0, !- X,Y,Z Vertex 2 {m}
  -36.6889424486452, -69.7871966624251, 0, !- X,Y,Z Vertex 3 {m}
  -36.6889424486452, -69.7871966624251, 1.24875; !- X,Y,Z Vertex 4 {m}

OS:Surface,
  {e2a6a4dd-4473-477f-9c9f-c7f5d55e7d93}, !- Handle
  Rectangle:material:0:0.0: 18,           !- Name
  Wall,                                   !- Surface Type
  ,                                       !- Construction Name
  {1f7f2894-29d4-47bd-a2b6-4cb76717cfae}, !- Space Name
  Outdoors,                               !- Outside Boundary Condition
  ,                                       !- Outside Boundary Condition Object
  SunExposed,                             !- Sun Exposure
  WindExposed,                            !- Wind Exposure
  ,                                       !- View Factor to Ground
  ,                                       !- Number of Vertices
  -53.2380695555352, -53.2380695555352, 1.24875, !- X,Y,Z Vertex 1 {m}
  -53.2380695555352, -53.2380695555352, 0, !- X,Y,Z Vertex 2 {m}
  -44.9635060020902, -61.5126331089802, 0, !- X,Y,Z Vertex 3 {m}
  -44.9635060020902, -61.5126331089802, 1.24875; !- X,Y,Z Vertex 4 {m}

OS:Surface,
  {d644bf31-688c-4c66-b479-654482faf2ea}, !- Handle
  Rectangle:material:0:0.0: 19,           !- Name
  Wall,                                   !- Surface Type
  ,                                       !- Construction Name
  {1f7f2894-29d4-47bd-a2b6-4cb76717cfae}, !- Space Name
  Outdoors,                               !- Outside Boundary Condition
  ,                                       !- Outside Boundary Condition Object
  SunExposed,                             !- Sun Exposure
  WindExposed,                            !- Wind Exposure
  ,                                       !- View Factor to Ground
  ,                                       !- Number of Vertices
  -45.6326310476016, -45.6326310476016, 1.24875, !- X,Y,Z Vertex 1 {m}
  -45.6326310476016, -45.6326310476016, 0, !- X,Y,Z Vertex 2 {m}
  -53.2380695555352, -53.2380695555352, 0, !- X,Y,Z Vertex 3 {m}
  -53.2380695555352, -53.2380695555352, 1.24875; !- X,Y,Z Vertex 4 {m}

OS:Surface,
  {78faaa51-cd42-4ef3-867a-8ada93124050}, !- Handle
  Rectangle:material:0:0.0: 20,           !- Name
  Wall,                                   !- Surface Type
  ,                                       !- Construction Name
  {1f7f2894-29d4-47bd-a2b6-4cb76717cfae}, !- Space Name
  Outdoors,                               !- Outside Boundary Condition
  ,                                       !- Outside Boundary Condition Object
  SunExposed,                             !- Sun Exposure
  WindExposed,                            !- Wind Exposure
  ,                                       !- View Factor to Ground
  ,                                       !- Number of Vertices
  -38.0271925396679, -38.027192539668, 1.24875, !- X,Y,Z Vertex 1 {m}
  -38.0271925396679, -38.027192539668, 0, !- X,Y,Z Vertex 2 {m}
  -45.6326310476016, -45.6326310476016, 0, !- X,Y,Z Vertex 3 {m}
  -45.6326310476016, -45.6326310476016, 1.24875; !- X,Y,Z Vertex 4 {m}

OS:Surface,
  {529bbf82-2731-4030-b6a9-c0f3437387ec}, !- Handle
  Rectangle:material:0:0.0: 21,           !- Name
  Wall,                                   !- Surface Type
  ,                                       !- Construction Name
  {1f7f2894-29d4-47bd-a2b6-4cb76717cfae}, !- Space Name
  Outdoors,                               !- Outside Boundary Condition
  ,                                       !- Outside Boundary Condition Object
  SunExposed,                             !- Sun Exposure
  WindExposed,                            !- Wind Exposure
  ,                                       !- View Factor to Ground
  ,                                       !- Number of Vertices
  -30.4217540317343, -30.4217540317344, 1.24875, !- X,Y,Z Vertex 1 {m}
  -30.4217540317343, -30.4217540317344, 0, !- X,Y,Z Vertex 2 {m}
  -38.0271925396679, -38.027192539668, 0, !- X,Y,Z Vertex 3 {m}
  -38.0271925396679, -38.027192539668, 1.24875; !- X,Y,Z Vertex 4 {m}

OS:Surface,
  {77157cd9-9195-48b5-9397-02f63a9c0b5c}, !- Handle
  Rectangle:material:0:0.0: 22,           !- Name
  Wall,                                   !- Surface Type
  ,                                       !- Construction Name
  {1f7f2894-29d4-47bd-a2b6-4cb76717cfae}, !- Space Name
  Outdoors,                               !- Outside Boundary Condition
  ,                                       !- Outside Boundary Condition Object
  SunExposed,                             !- Sun Exposure
  WindExposed,                            !- Wind Exposure
  ,                                       !- View Factor to Ground
  ,                                       !- Number of Vertices
  -22.8163155238007, -22.8163155238008, 1.24875, !- X,Y,Z Vertex 1 {m}
  -22.8163155238007, -22.8163155238008, 0, !- X,Y,Z Vertex 2 {m}
  -30.4217540317343, -30.4217540317344, 0, !- X,Y,Z Vertex 3 {m}
  -30.4217540317343, -30.4217540317344, 1.24875; !- X,Y,Z Vertex 4 {m}

OS:Surface,
  {dcbdafb1-059f-4410-ad32-9de5c624129e}, !- Handle
  Rectangle:material:0:0.0: 23,           !- Name
  Wall,                                   !- Surface Type
  ,                                       !- Construction Name
  {1f7f2894-29d4-47bd-a2b6-4cb76717cfae}, !- Space Name
  Outdoors,                               !- Outside Boundary Condition
  ,                                       !- Outside Boundary Condition Object
  SunExposed,                             !- Sun Exposure
  WindExposed,                            !- Wind Exposure
  ,                                       !- View Factor to Ground
  ,                                       !- Number of Vertices
  -15.2108770158672, -15.2108770158672, 1.24875, !- X,Y,Z Vertex 1 {m}
  -15.2108770158672, -15.2108770158672, 0, !- X,Y,Z Vertex 2 {m}
  -22.8163155238007, -22.8163155238008, 0, !- X,Y,Z Vertex 3 {m}
  -22.8163155238007, -22.8163155238008, 1.24875; !- X,Y,Z Vertex 4 {m}

OS:Surface,
  {4be36f6e-3048-4ee3-af18-743fbe85e5eb}, !- Handle
  Rectangle:material:0:0.0: 24,           !- Name
  Wall,                                   !- Surface Type
  ,                                       !- Construction Name
  {1f7f2894-29d4-47bd-a2b6-4cb76717cfae}, !- Space Name
  Outdoors,                               !- Outside Boundary Condition
  ,                                       !- Outside Boundary Condition Object
  SunExposed,                             !- Sun Exposure
  WindExposed,                            !- Wind Exposure
  ,                                       !- View Factor to Ground
  ,                                       !- Number of Vertices
  -7.60543850793364, -7.6054385079336, 1.24875, !- X,Y,Z Vertex 1 {m}
  -7.60543850793364, -7.6054385079336, 0, !- X,Y,Z Vertex 2 {m}
  -15.2108770158672, -15.2108770158672, 0, !- X,Y,Z Vertex 3 {m}
  -15.2108770158672, -15.2108770158672, 1.24875; !- X,Y,Z Vertex 4 {m}

OS:Surface,
  {8e0e2e3f-c6d3-4c80-b556-5498cac58ee9}, !- Handle
  Rectangle:material:0:0.0: 25,           !- Name
  Wall,                                   !- Surface Type
  ,                                       !- Construction Name
  {1f7f2894-29d4-47bd-a2b6-4cb76717cfae}, !- Space Name
  Outdoors,                               !- Outside Boundary Condition
  ,                                       !- Outside Boundary Condition Object
  SunExposed,                             !- Sun Exposure
  WindExposed,                            !- Wind Exposure
  ,                                       !- View Factor to Ground
  ,                                       !- Number of Vertices
  -4.2632564145606e-14, 4.12114786740858e-13, 1.24875, !- X,Y,Z Vertex 1 {m}
  -4.2632564145606e-14, 4.12114786740858e-13, 0, !- X,Y,Z Vertex 2 {m}
  -7.60543850793364, -7.6054385079336, 0, !- X,Y,Z Vertex 3 {m}
  -7.60543850793364, -7.6054385079336, 1.24875; !- X,Y,Z Vertex 4 {m}

OS:Surface,
  {362f9061-3b90-4543-ae64-4e14c1fd944a}, !- Handle
  Rectangle:material:0:1.24875: 26,       !- Name
  RoofCeiling,                            !- Surface Type
  ,                                       !- Construction Name
  {1f7f2894-29d4-47bd-a2b6-4cb76717cfae}, !- Space Name
  Surface,                                !- Outside Boundary Condition
  {27b89bc9-11c9-4bbd-8a76-9115f6cb0e7c}, !- Outside Boundary Condition Object
  NoSun,                                  !- Sun Exposure
  NoWind,                                 !- Wind Exposure
  ,                                       !- View Factor to Ground
  ,                                       !- Number of Vertices
  -7.60543850793364, -7.6054385079336, 1.24875, !- X,Y,Z Vertex 1 {m}
  -15.2108770158672, -15.2108770158672, 1.24875, !- X,Y,Z Vertex 2 {m}
  -22.8163155238007, -22.8163155238008, 1.24875, !- X,Y,Z Vertex 3 {m}
  -30.4217540317343, -30.4217540317344, 1.24875, !- X,Y,Z Vertex 4 {m}
  -38.0271925396679, -38.027192539668, 1.24875, !- X,Y,Z Vertex 5 {m}
  -45.6326310476016, -45.6326310476016, 1.24875, !- X,Y,Z Vertex 6 {m}
  -53.2380695555352, -53.2380695555352, 1.24875, !- X,Y,Z Vertex 7 {m}
  -44.9635060020902, -61.5126331089802, 1.24875, !- X,Y,Z Vertex 8 {m}
  -36.6889424486452, -69.7871966624251, 1.24875, !- X,Y,Z Vertex 9 {m}
  -28.4143788952002, -78.0617602158701, 1.24875, !- X,Y,Z Vertex 10 {m}
  -20.1398153417552, -86.3363237693151, 1.24875, !- X,Y,Z Vertex 11 {m}
  -11.8652517883102, -94.6108873227601, 1.24875, !- X,Y,Z Vertex 12 {m}
  -4.25981328037664, -87.0054488148265, 1.24875, !- X,Y,Z Vertex 13 {m}
  3.34562522755696, -79.4000103068929, 1.24875, !- X,Y,Z Vertex 14 {m}
  10.9510637354906, -71.7945717989593, 1.24875, !- X,Y,Z Vertex 15 {m}
  18.5565022434242, -64.1891332910257, 1.24875, !- X,Y,Z Vertex 16 {m}
  26.1619407513578, -56.5836947830921, 1.24875, !- X,Y,Z Vertex 17 {m}
  33.7673792592913, -48.9782562751585, 1.24875, !- X,Y,Z Vertex 18 {m}
  41.3728177672249, -41.3728177672249, 1.24875, !- X,Y,Z Vertex 19 {m}
  33.09825421378, -33.0982542137799, 1.24875, !- X,Y,Z Vertex 20 {m}
  24.823690660335, -24.8236906603349, 1.24875, !- X,Y,Z Vertex 21 {m}
  16.54912710689, -16.54912710689, 1.24875, !- X,Y,Z Vertex 22 {m}
  8.27456355344496, -8.27456355344499, 1.24875, !- X,Y,Z Vertex 23 {m}
  -4.2632564145606e-14, 4.12114786740858e-13, 1.24875; !- X,Y,Z Vertex 24 {m}

OS:BuildingStory,
  {2f31cbce-a995-4879-9183-45e900526e9a}, !- Handle
  Rectangle:Story 2,                      !- Name
  1.24875,                                !- Nominal Z Coordinate {m}
  0.8325,                                 !- Nominal Floor to Floor Height {m}
  ,                                       !- Default Construction Set Name
  ,                                       !- Default Schedule Set Name
  ;                                       !- Group Rendering Name

OS:Space,
  {80ce589b-ddfa-4b53-a174-bb2b2f6b797a}, !- Handle
  0 Core Space 1,                         !- Name
  ,                                       !- Space Type Name
  ,                                       !- Default Construction Set Name
  ,                                       !- Default Schedule Set Name
  -0,                                     !- Direction of Relative North {deg}
  51.7248610437959,                       !- X Origin {m}