
OS:Version,
  {463deb29-819f-4fe5-9ebc-da5e3c844d06}, !- Handle
  1.6.0;                                  !- Version Identifier

OS:BuildingStory,
  {857e3916-08ec-4592-a447-237ff3261ac6}, !- Handle
  Story 1,                                !- Name
  0,                                      !- Nominal Z Coordinate {m}
  4.5,                                    !- Nominal Floor to Floor Height {m}
  ,                                       !- Default Construction Set Name
  ,                                       !- Default Schedule Set Name
  ;                                       !- Group Rendering Name

OS:Space,
  {191dd2b0-5711-412b-8f54-3be17e8e313a}, !- Handle
  0 Core Space,                           !- Name
  ,                                       !- Space Type Name
  ,                                       !- Default Construction Set Name
  ,                                       !- Default Schedule Set Name
  -0,                                     !- Direction of Relative North {deg}
  -29.26,                                 !- X Origin {m}
  37.64,                                  !- Y Origin {m}
  0,                                      !- Z Origin {m}
  {857e3916-08ec-4592-a447-237ff3261ac6}, !- Building Story Name
  {baeb14b7-0e3e-41e3-9b0f-df7983bfe884}; !- Thermal Zone Name

OS:Surface,
  {3d4dec8e-97f0-4243-90ef-aec0d351111e}, !- Handle
  Surface 1,                              !- Name
  Floor,                                  !- Surface Type
  ,                                       !- Construction Name
  {191dd2b0-5711-412b-8f54-3be17e8e313a}, !- Space Name
  Ground,                                 !- Outside Boundary Condition
  ,                                       !- Outside Boundary Condition Object
  NoSun,                                  !- Sun Exposure
  NoWind,                                 !- Wind Exposure
  ,                                       !- View Factor to Ground
  ,                                       !- Number of Vertices
  0, 0, 0,                                !- X,Y,Z Vertex 1 {m}
  29.26, 0, 0,                            !- X,Y,Z Vertex 2 {m}
  58.52, 0, 0,                            !- X,Y,Z Vertex 3 {m}
  58.52, -37.64, 0,                       !- X,Y,Z Vertex 4 {m}
  58.52, -75.28, 0,                       !- X,Y,Z Vertex 5 {m}
  29.26, -75.28, 0,                       !- X,Y,Z Vertex 6 {m}
  0, -75.28, 0,                           !- X,Y,Z Vertex 7 {m}
  0, -37.64, 0;                           !- X,Y,Z Vertex 8 {m}

OS:Surface,
  {8842892c-7d37-495a-88c6-3e6f488ec300}, !- Handle
  Surface 2,                              !- Name
  Wall,                                   !- Surface Type
  ,                                       !- Construction Name
  {191dd2b0-5711-412b-8f54-3be17e8e313a}, !- Space Name
  Outdoors,                               !- Outside Boundary Condition
  ,                                       !- Outside Boundary Condition Object
  SunExposed,                             !- Sun Exposure
  WindExposed,                            !- Wind Exposure
  ,                                       !- View Factor to Ground
  ,                                       !- Number of Vertices
  29.26, 0, 4.5,                          !- X,Y,Z Vertex 1 {m}
  29.26, 0, 0,                            !- X,Y,Z Vertex 2 {m}
  0, 0, 0,                                !- X,Y,Z Vertex 3 {m}
  0, 0, 4.5;                              !- X,Y,Z Vertex 4 {m}

OS:Surface,
  {498a946c-4872-4b54-ad42-04d26c69e68b}, !- Handle
  Surface 3,                              !- Name
  Wall,                                   !- Surface Type
  ,                                       !- Construction Name
  {191dd2b0-5711-412b-8f54-3be17e8e313a}, !- Space Name
  Outdoors,                               !- Outside Boundary Condition
  ,                                       !- Outside Boundary Condition Object
  SunExposed,                             !- Sun Exposure
  WindExposed,                            !- Wind Exposure
  ,                                       !- View Factor to Ground
  ,                                       !- Number of Vertices
  58.52, 0, 4.5,                          !- X,Y,Z Vertex 1 {m}
  58.52, 0, 0,                            !- X,Y,Z Vertex 2 {m}
  29.26, 0, 0,                            !- X,Y,Z Vertex 3 {m}
  29.26, 0, 4.5;                          !- X,Y,Z Vertex 4 {m}

OS:Surface,
  {0fbfef47-98be-4c9a-8c00-dc29eec2cf28}, !- Handle
  Surface 4,                              !- Name
  Wall,                                   !- Surface Type
  ,                                       !- Construction Name
  {191dd2b0-5711-412b-8f54-3be17e8e313a}, !- Space Name
  Outdoors,                               !- Outside Boundary Condition
  ,                                       !- Outside Boundary Condition Object
  SunExposed,                             !- Sun Exposure
  WindExposed,                            !- Wind Exposure
  ,                                       !- View Factor to Ground
  ,                                       !- Number of Vertices
  58.52, -37.64, 4.5,                     !- X,Y,Z Vertex 1 {m}
  58.52, -37.64, 0,                       !- X,Y,Z Vertex 2 {m}
  58.52, 0, 0,                            !- X,Y,Z Vertex 3 {m}
  58.52, 0, 4.5;                          !- X,Y,Z Vertex 4 {m}

OS:Surface,
  {0f6f3b62-c925-4c65-bb76-eda687556364}, !- Handle
  Surface 5,                              !- Name
  Wall,                                   !- Surface Type
  ,                                       !- Construction Name
  {191dd2b0-5711-412b-8f54-3be17e8e313a}, !- Space Name
  Outdoors,                               !- Outside Boundary Condition
  ,                                       !- Outside Boundary Condition Object
  SunExposed,                             !- Sun Exposure
  WindExposed,                            !- Wind Exposure
  ,                                       !- View Factor to Ground
  ,                                       !- Number of Vertices
  58.52, -75.28, 4.5,                     !- X,Y,Z Vertex 1 {m}
  58.52, -75.28, 0,                       !- X,Y,Z Vertex 2 {m}
  58.52, -37.64, 0,                       !- X,Y,Z Vertex 3 {m}
  58.52, -37.64, 4.5;                     !- X,Y,Z Vertex 4 {m}

OS:Surface,
  {ad4832b2-3e6f-4c48-8089-313387f2cf10}, !- Handle
  Surface 6,                              !- Name
  Wall,                                   !- Surface Type
  ,                                       !- Construction Name
  {191dd2b0-5711-412b-8f54-3be17e8e313a}, !- Space Name
  Outdoors,                               !- Outside Boundary Condition
  ,                                       !- Outside Boundary Condition Object
  SunExposed,                             !- Sun Exposure
  WindExposed,                            !- Wind Exposure
  ,                                       !- View Factor to Ground
  ,                                       !- Number of Vertices
  29.26, -75.28, 4.5,                     !- X,Y,Z Vertex 1 {m}
  29.26, -75.28, 0,                       !- X,Y,Z Vertex 2 {m}
  58.52, -75.28, 0,                       !- X,Y,Z Vertex 3 {m}
  58.52, -75.28, 4.5;                     !- X,Y,Z Vertex 4 {m}

OS:Surface,
  {7d938f16-56dc-43aa-8944-e537de255505}, !- Handle
  Surface 7,                              !- Name
  Wall,                                   !- Surface Type
  ,                                       !- Construction Name
  {191dd2b0-5711-412b-8f54-3be17e8e313a}, !- Space Name
  Outdoors,                               !- Outside Boundary Condition
  ,                                       !- Outside Boundary Condition Object
  SunExposed,                             !- Sun Exposure
  WindExposed,                            !- Wind Exposure
  ,                                       !- View Factor to Ground
  ,                                       !- Number of Vertices
  0, -75.28, 4.5,                         !- X,Y,Z Vertex 1 {m}
  0, -75.28, 0,                           !- X,Y,Z Vertex 2 {m}
  29.26, -75.28, 0,                       !- X,Y,Z Vertex 3 {m}
  29.26, -75.28, 4.5;                     !- X,Y,Z Vertex 4 {m}

OS:Surface,
  {9a3da5ab-255a-4b87-9d68-61c8d1d8dfd6}, !- Handle
  Surface 8,                              !- Name
  Wall,                                   !- Surface Type
  ,                                       !- Construction Name
  {191dd2b0-5711-412b-8f54-3be17e8e313a}, !- Space Name
  Outdoors,                               !- Outside Boundary Condition
  ,                                       !- Outside Boundary Condition Object
  SunExposed,                             !- Sun Exposure
  WindExposed,                            !- Wind Exposure
  ,                                       !- View Factor to Ground
  ,                                       !- Number of Vertices
  0, -37.64, 4.5,                         !- X,Y,Z Vertex 1 {m}
  0, -37.64, 0,                           !- X,Y,Z Vertex 2 {m}
  0, -75.28, 0,                           !- X,Y,Z Vertex 3 {m}
  0, -75.28, 4.5;                         !- X,Y,Z Vertex 4 {m}

OS:Surface,
  {56f94b35-6dd4-459e-b6c5-1045c23920ca}, !- Handle
  Surface 9,                              !- Name
  Wall,                                   !- Surface Type
  ,                                       !- Construction Name
  {191dd2b0-5711-412b-8f54-3be17e8e313a}, !- Space Name
  Outdoors,                               !- Outside Boundary Condition
  ,                                       !- Outside Boundary Condition Object
  SunExposed,                             !- Sun Exposure
  WindExposed,                            !- Wind Exposure
  ,                                       !- View Factor to Ground
  ,                                       !- Number of Vertices
  0, 0, 4.5,                              !- X,Y,Z Vertex 1 {m}
  0, 0, 0,                                !- X,Y,Z Vertex 2 {m}
  0, -37.64, 0,                           !- X,Y,Z Vertex 3 {m}
  0, -37.64, 4.5;                         !- X,Y,Z Vertex 4 {m}

OS:BuildingStory,
  {f2d2628e-639c-482d-b16a-8227d51840b3}, !- Handle
  Story 2,                                !- Name
  4.5,                                    !- Nominal Z Coordinate {m}
  3,                                      !- Nominal Floor to Floor Height {m}
  ,                                       !- Default Construction Set Name
  ,                                       !- Default Schedule Set Name
  ;                                       !- Group Rendering Name

OS:Space,
  {f1f3e2f5-9227-4c7d-adb3-4d0e2e07f413}, !- Handle
  0 Core Space 1,                         !- Name
  ,                                       !- Space Type Name
  ,                                       !- Default Construction Set Name
  ,                                       !- Default Schedule Set Name
  -0,                                     !- Direction of Relative North {deg}
  -29.26,                                 !- X Origin {m}
  37.64,                                  !- Y Origin {m}
  4.5,                                    !- Z Origin {m}
  {f2d2628e-639c-482d-b16a-8227d51840b3}, !- Building Story Name
  {bd623599-3931-4458-a4d4-95cd36a936a6}; !- Thermal Zone Name

OS:Surface,
  {59a289aa-2039-4f81-9185-413b55dc0e62}, !- Handle
  Surface 12,                             !- Name
  Wall,                                   !- Surface Type
  ,                                       !- Construction Name
  {f1f3e2f5-9227-4c7d-adb3-4d0e2e07f413}, !- Space Name
  Outdoors,                               !- Outside Boundary Condition
  ,                                       !- Outside Boundary Condition Object
  SunExposed,                             !- Sun Exposure
  WindExposed,                            !- Wind Exposure
  ,                                       !- View Factor to Ground
  ,                                       !- Number of Vertices
  29.26, 0, 3,                            !- X,Y,Z Vertex 1 {m}
  29.26, 0, 0,                            !- X,Y,Z Vertex 2 {m}
  0, 0, 0,                                !- X,Y,Z Vertex 3 {m}
  0, 0, 3;                                !- X,Y,Z Vertex 4 {m}

OS:Surface,
  {11af6489-fd17-435d-94bd-59cb8e345e3d}, !- Handle
  Surface 13,                             !- Name
  Wall,                                   !- Surface Type
  ,                                       !- Construction Name
  {f1f3e2f5-9227-4c7d-adb3-4d0e2e07f413}, !- Space Name
  Outdoors,                               !- Outside Boundary Condition
  ,                                       !- Outside Boundary Condition Object
  SunExposed,                             !- Sun Exposure
  WindExposed,                            !- Wind Exposure
  ,                                       !- View Factor to Ground
  ,                                       !- Number of Vertices
  58.52, 0, 3,                            !- X,Y,Z Vertex 1 {m}
  58.52, 0, 0,                            !- X,Y,Z Vertex 2 {m}
  29.26, 0, 0,                            !- X,Y,Z Vertex 3 {m}
  29.26, 0, 3;                            !- X,Y,Z Vertex 4 {m}

OS:Surface,
  {9a4d7eb6-77f9-4004-bd1d-66de149cb57a}, !- Handle
  Surface 14,                             !- Name
  Wall,                                   !- Surface Type
  ,                                       !- Construction Name
  {f1f3e2f5-9227-4c7d-adb3-4d0e2e07f413}, !- Space Name
  Outdoors,                               !- Outside Boundary Condition
  ,                                       !- Outside Boundary Condition Object
  SunExposed,                             !- Sun Exposure
  WindExposed,                            !- Wind Exposure
  ,                                       !- View Factor to Ground
  ,                                       !- Number of Vertices
  58.52, -37.64, 3,                       !- X,Y,Z Vertex 1 {m}
  58.52, -37.64, 0,                       !- X,Y,Z Vertex 2 {m}
  58.52, 0, 0,                            !- X,Y,Z Vertex 3 {m}
  58.52, 0, 3;                            !- X,Y,Z Vertex 4 {m}

OS:Surface,
  {3a856405-9ba8-422b-9936-38b8b7bcf0eb}, !- Handle
  Surface 15,                             !- Name
  Wall,                                   !- Surface Type
  ,                                       !- Construction Name
  {f1f3e2f5-9227-4c7d-adb3-4d0e2e07f413}, !- Space Name
  Outdoors,                               !- Outside Boundary Condition
  ,                                       !- Outside Boundary Condition Object
  SunExposed,                             !- Sun Exposure
  WindExposed,                            !- Wind Exposure
  ,                                       !- View Factor to Ground
  ,                                       !- Number of Vertices
  58.52, -75.28, 3,                       !- X,Y,Z Vertex 1 {m}
  58.52, -75.28, 0,                       !- X,Y,Z Vertex 2 {m}
  58.52, -37.64, 0,                       !- X,Y,Z Vertex 3 {m}
  58.52, -37.64, 3;                       !- X,Y,Z Vertex 4 {m}

OS:Surface,
  {117597d8-66a9-419d-800f-1db60f0d8cba}, !- Handle
  Surface 16,                             !- Name
  Wall,                                   !- Surface Type
  ,                                       !- Construction Name
  {f1f3e2f5-9227-4c7d-adb3-4d0e2e07f413}, !- Space Name
  Outdoors,                               !- Outside Boundary Condition
  ,                                       !- Outside Boundary Condition Object
  SunExposed,                             !- Sun Exposure
  WindExposed,                            !- Wind Exposure
  ,                                       !- View Factor to Ground
  ,                                       !- Number of Vertices
  29.26, -75.28, 3,                       !- X,Y,Z Vertex 1 {m}
  29.26, -75.28, 0,                       !- X,Y,Z Vertex 2 {m}
  58.52, -75.28, 0,                       !- X,Y,Z Vertex 3 {m}
  58.52, -75.28, 3;                       !- X,Y,Z Vertex 4 {m}

OS:Surface,
  {9c1deb9b-4825-49ef-b18b-ef5b33b26505}, !- Handle
  Surface 17,                             !- Name
  Wall,                                   !- Surface Type
  ,                                       !- Construction Name
  {f1f3e2f5-9227-4c7d-adb3-4d0e2e07f413}, !- Space Name
  Outdoors,                               !- Outside Boundary Condition
  ,                                       !- Outside Boundary Condition Object
  SunExposed,                             !- Sun Exposure
  WindExposed,                            !- Wind Exposure
  ,                                       !- View Factor to Ground
  ,                                       !- Number of Vertices
  0, -75.28, 3,                           !- X,Y,Z Vertex 1 {m}
  0, -75.28, 0,                           !- X,Y,Z Vertex 2 {m}
  29.26, -75.28, 0,                       !- X,Y,Z Vertex 3 {m}
  29.26, -75.28, 3;                       !- X,Y,Z Vertex 4 {m}

OS:Surface,
  {f76b5182-adae-4211-a656-d61dd1e67951}, !- Handle
  Surface 18,                             !- Name
  Wall,                                   !- Surface Type
  ,                                       !- Construction Name
  {f1f3e2f5-9227-4c7d-adb3-4d0e2e07f413}, !- Space Name
  Outdoors,                               !- Outside Boundary Condition
  ,                                       !- Outside Boundary Condition Object
  SunExposed,                             !- Sun Exposure
  WindExposed,                            !- Wind Exposure
  ,                                       !- View Factor to Ground
  ,                                       !- Number of Vertices
  0, -37.64, 3,                           !- X,Y,Z Vertex 1 {m}
  0, -37.64, 0,                           !- X,Y,Z Vertex 2 {m}
  0, -75.28, 0,                           !- X,Y,Z Vertex 3 {m}
  0, -75.28, 3;                           !- X,Y,Z Vertex 4 {m}

OS:Surface,
  {7df98dbf-c5aa-4635-9913-837e2c020a09}, !- Handle
  Surface 19,                             !- Name
  Wall,                                   !- Surface Type
  ,                                       !- Construction Name
  {f1f3e2f5-9227-4c7d-adb3-4d0e2e07f413}, !- Space Name
  Outdoors,                               !- Outside Boundary Condition
  ,                                       !- Outside Boundary Condition Object
  SunExposed,                             !- Sun Exposure
  WindExposed,                            !- Wind Exposure
  ,                                       !- View Factor to Ground
  ,                                       !- Number of Vertices
  0, 0, 3,                                !- X,Y,Z Vertex 1 {m}
  0, 0, 0,                                !- X,Y,Z Vertex 2 {m}
  0, -37.64, 0,                           !- X,Y,Z Vertex 3 {m}
  0, -37.64, 3;                           !- X,Y,Z Vertex 4 {m}

OS:SubSurface,
  {78ee8eeb-2ff5-4d73-8f40-9e8ba3a3411b}, !- Handle
  Sub Surface 1,                          !- Name
  FixedWindow,                            !- Sub Surface Type
  ,                                       !- Construction Name
  {117597d8-66a9-419d-800f-1db60f0d8cba}, !- Surface Name
  ,                                       !- Outside Boundary Condition Object
  ,                                       !- View Factor to Ground
  ,                                       !- Shading Control Name
  ,                                       !- Frame and Divider Name
  ,                                       !- Multiplier
  ,                                       !- Number of Vertices
  29.2854, -75.28, 2.94752326938088,      !- X,Y,Z Vertex 1 {m}
  29.2854, -75.28, 0.0254,                !- X,Y,Z Vertex 2 {m}
  58.4946, -75.28, 0.0254,                !- X,Y,Z Vertex 3 {m}
  58.4946, -75.28, 2.94752326938088;      !- X,Y,Z Vertex 4 {m}

OS:SubSurface,
  {6de25b39-1b12-47a6-80bf-3807e3e09b56}, !- Handle
  Sub Surface 2,                          !- Name
  FixedWindow,                            !- Sub Surface Type
  ,                                       !- Construction Name
  {11af6489-fd17-435d-94bd-59cb8e345e3d}, !- Surface Name
  ,                                       !- Outside Boundary Condition Object
  ,                                       !- View Factor to Ground
  ,                                       !- Shading Control Name
  ,                                       !- Frame and Divider Name
  ,                                       !- Multiplier
  ,                                       !- Number of Vertices
  58.4946, 0, 2.94752326938088,           !- X,Y,Z Vertex 1 {m}
  58.4946, 0, 0.0254,                     !- X,Y,Z Vertex 2 {m}
  29.2854, 0, 0.0254,                     !- X,Y,Z Vertex 3 {m}
  29.2854, 0, 2.94752326938088;           !- X,Y,Z Vertex 4 {m}

OS:SubSurface,
  {276680b5-41c9-4c04-99eb-b1a9ced42d23}, !- Handle
  Sub Surface 3,                          !- Name
  FixedWindow,                            !- Sub Surface Type
  ,                                       !- Construction Name
  {3a856405-9ba8-422b-9936-38b8b7bcf0eb}, !- Surface Name
  ,                                       !- Outside Boundary Condition Object
  ,                                       !- View Factor to Ground
  ,                                       !- Shading Control Name
  ,                                       !- Frame and Divider Name
  ,                                       !- Multiplier
  ,                                       !- Number of Vertices
  58.52, -75.2546, 2.94639225309397,      !- X,Y,Z Vertex 1 {m}
  58.52, -75.2546, 0.0254,                !- X,Y,Z Vertex 2 {m}
  58.52, -37.6654, 0.0254,                !- X,Y,Z Vertex 3 {m}
  58.52, -37.6654, 2.94639225309397;      !- X,Y,Z Vertex 4 {m}

OS:SubSurface,
  {1b68a580-0b57-4246-80f8-f54a581186ef}, !- Handle
  Sub Surface 4,                          !- Name
  FixedWindow,                            !- Sub Surface Type
  ,                                       !- Construction Name
  {59a289aa-2039-4f81-9185-413b55dc0e62}, !- Surface Name
  ,                                       !- Outside Boundary Condition Object
  ,                                       !- View Factor to Ground
  ,                                       !- Shading Control Name
  ,                                       !- Frame and Divider Name
  ,                                       !- Multiplier
  ,                                       !- Number of Vertices
  29.2346, 0, 2.94752326938088,           !- X,Y,Z Vertex 1 {m}
  29.2346, 0, 0.0254,                     !- X,Y,Z Vertex 2 {m}
  0.0253999999999976, 0, 0.0254,          !- X,Y,Z Vertex 3 {m}
  0.0253999999999976, 0, 2.94752326938088; !- X,Y,Z Vertex 4 {m}

OS:SubSurface,
  {de5a16ab-dbe3-46aa-a4ac-e51ac1bf5af4}, !- Handle
  Sub Surface 5,                          !- Name
  FixedWindow,                            !- Sub Surface Type
  ,                                       !- Construction Name
  {7df98dbf-c5aa-4635-9913-837e2c020a09}, !- Surface Name
  ,                                       !- Outside Boundary Condition Object
  ,                                       !- View Factor to Ground
  ,                                       !- Shading Control Name
  ,                                       !- Frame and Divider Name
  ,                                       !- Multiplier
  ,                                       !- Number of Vertices
  0, -0.0254, 2.94639225309397,           !- X,Y,Z Vertex 1 {m}
  0, -0.0254, 0.0254,                     !- X,Y,Z Vertex 2 {m}
  0, -37.6146, 0.0254,                    !- X,Y,Z Vertex 3 {m}
  0, -37.6146, 2.94639225309397;          !- X,Y,Z Vertex 4 {m}

OS:SubSurface,
  {f8855b4a-b0b8-447c-b502-9fd098eb140b}, !- Handle
  Sub Surface 6,                          !- Name
  FixedWindow,                            !- Sub Surface Type
  ,                                       !- Construction Name
  {9a4d7eb6-77f9-4004-bd1d-66de149cb57a}, !- Surface Name
  ,                                       !- Outside Boundary Condition Object
  ,                                       !- View Factor to Ground
  ,                                       !- Shading Control Name
  ,                                       !- Frame and Divider Name
  ,                                       !- Multiplier
  ,                                       !- Number of Vertices
  58.52, -37.6146, 2.94639225309397,      !- X,Y,Z Vertex 1 {m}
  58.52, -37.6146, 0.0254,                !- X,Y,Z Vertex 2 {m}
  58.52, -0.0254000000000048, 0.0254,     !- X,Y,Z Vertex 3 {m}
  58.52, -0.0254000000000048, 2.94639225309397; !- X,Y,Z Vertex 4 {m}

OS:SubSurface,
  {79b1526a-a665-4c8f-8e98-90f5fc4f9532}, !- Handle
  Sub Surface 7,                          !- Name
  FixedWindow,                            !- Sub Surface Type
  ,                                       !- Construction Name
  {9c1deb9b-4825-49ef-b18b-ef5b33b26505}, !- Surface Name
  ,                                       !- Outside Boundary Condition Object
  ,                                       !- View Factor to Ground
  ,                                       !- Shading Control Name
  ,                                       !- Frame and Divider Name
  ,                                       !- Multiplier
  ,                                       !- Number of Vertices
  0.0254, -75.28, 2.94752326938088,       !- X,Y,Z Vertex 1 {m}
  0.0254, -75.28, 0.0254,                 !- X,Y,Z Vertex 2 {m}
  29.2346, -75.28, 0.0254,                !- X,Y,Z Vertex 3 {m}
  29.2346, -75.28, 2.94752326938088;      !- X,Y,Z Vertex 4 {m}

OS:SubSurface,
  {06507460-a3f6-4ff7-b2ae-f5a24617a3a3}, !- Handle
  Sub Surface 8,                          !- Name
  FixedWindow,                            !- Sub Surface Type
  ,                                       !- Construction Name
  {f76b5182-adae-4211-a656-d61dd1e67951}, !- Surface Name
  ,                                       !- Outside Boundary Condition Object
  ,                                       !- View Factor to Ground
  ,                                       !- Shading Control Name
  ,                                       !- Frame and Divider Name
  ,                                       !- Multiplier
  ,                                       !- Number of Vertices
  0, -37.6654, 2.94639225309397,          !- X,Y,Z Vertex 1 {m}
  0, -37.6654, 0.0254,                    !- X,Y,Z Vertex 2 {m}
  0, -75.2546, 0.0254,                    !- X,Y,Z Vertex 3 {m}
  0, -75.2546, 2.94639225309397;          !- X,Y,Z Vertex 4 {m}

OS:BuildingStory,
  {2ea84e45-ee39-44e2-8ac3-e9a8211957cf}, !- Handle
  Story 3,                                !- Name
  7.5,                                    !- Nominal Z Coordinate {m}
  4.5,                                    !- Nominal Floor to Floor Height {m}
  ,                                       !- Default Construction Set Name
  ,                                       !- Default Schedule Set Name
  ;                                       !- Group Rendering Name

OS:Space,
  {ae86a85d-c610-48e2-902f-cdca90c546c3}, !- Handle
  0 Core Space 2,                         !- Name
  ,                                       !- Space Type Name
  ,                                       !- Default Construction Set Name
  ,                                       !- Default Schedule Set Name
  -0,                                     !- Direction of Relative North {deg}
  -29.26,                                 !- X Origin {m}
  37.64,                                  !- Y Origin {m}
  7.5,                                    !- Z Origin {m}
  {2ea84e45-ee39-44e2-8ac3-e9a8211957cf}, !- Building Story Name
  {58101d31-042d-40ac-b1be-7e61c5159dcd}; !- Thermal Zone Name

OS:Surface,
  {bfe65c38-91fb-4d84-b28d-5c5ad22b64d3}, !- Handle
  Surface 11,                             !- Name
  Wall,                                   !- Surface Type
  ,                                       !- Construction Name
  {ae86a85d-c610-48e2-902f-cdca90c546c3}, !- Space Name
  Outdoors,                               !- Outside Boundary Condition
  ,                                       !- Outside Boundary Condition Object
  SunExposed,                             !- Sun Exposure
  WindExposed,                            !- Wind Exposure
  ,                                       !- View Factor to Ground
  ,                                       !- Number of Vertices
  29.26, 0, 4.5,                          !- X,Y,Z Vertex 1 {m}
  29.26, 0, 0,                            !- X,Y,Z Vertex 2 {m}
  0, 0, 0,                                !- X,Y,Z Vertex 3 {m}
  0, 0, 4.5;                              !- X,Y,Z Vertex 4 {m}

OS:Surface,
  {ead78368-84a2-452e-a068-aeef372a3abe}, !- Handle
  Surface 21,                             !- Name
  Wall,                                   !- Surface Type
  ,                                       !- Construction Name
  {ae86a85d-c610-48e2-902f-cdca90c546c3}, !- Space Name
  Outdoors,                               !- Outside Boundary Condition
  ,                                       !- Outside Boundary Condition Object
  SunExposed,                             !- Sun Exposure
  WindExposed,                            !- Wind Exposure
  ,                                       !- View Factor to Ground
  ,                                       !- Number of Vertices
  58.52, 0, 4.5,                          !- X,Y,Z Vertex 1 {m}
  58.52, 0, 0,                            !- X,Y,Z Vertex 2 {m}
  29.26, 0, 0,                            !- X,Y,Z Vertex 3 {m}
  29.26, 0, 4.5;                          !- X,Y,Z Vertex 4 {m}

OS:Surface,
  {c277125a-023b-4c9d-9fdb-2f6b12b0881f}, !- Handle
  Surface 22,                             !- Name
  Wall,                                   !- Surface Type
  ,                                       !- Construction Name
  {ae86a85d-c610-48e2-902f-cdca90c546c3}, !- Space Name
  Outdoors,                               !- Outside Boundary Condition