
OS:Version,
  {09892507-36ea-496b-9ed2-3cdd73368776}, !- Handle
  1.7.0;                                  !- Version Identifier

OS:BuildingStory,
  {35e6a31b-59d8-46bd-96da-3d87c549bd14}, !- Handle
  rectangle1:Story 1,                     !- Name
  0,                                      !- Nominal Z Coordinate {m}
  1.18635,                                !- Nominal Floor to Floor Height {m}
  ,                                       !- Default Construction Set Name
  ,                                       !- Default Schedule Set Name
  {7ad8dc25-6944-4a15-84c9-da9fcf778c05}; !- Group Rendering Name

OS:Space,
  {be2c85a7-6d3d-47c6-88ed-d8a7b2457b1c}, !- Handle
  0 Core Space,                           !- Name
  ,                                       !- Space Type Name
  ,                                       !- Default Construction Set Name
  ,                                       !- Default Schedule Set Name
  -0,                                     !- Direction of Relative North {deg}
  3.46,                                   !- X Origin {m}
  -2.81,                                  !- Y Origin {m}
  0,                                      !- Z Origin {m}
  {35e6a31b-59d8-46bd-96da-3d87c549bd14}, !- Building Story Name
  {61248f68-30b9-4de7-a549-18b8fbec94a4}; !- Thermal Zone Name

OS:Surface,
  {99d607a8-75fc-4884-8cbe-f32e4c8ad34a}, !- Handle
  Surface 1,                              !- Name
  Floor,                                  !- Surface Type
  ,                                       !- Construction Name
  {be2c85a7-6d3d-47c6-88ed-d8a7b2457b1c}, !- Space Name
  Ground,                                 !- Outside Boundary Condition
  ,                                       !- Outside Boundary Condition Object
  NoSun,                                  !- Sun Exposure
  NoWind,                                 !- Wind Exposure
  ,                                       !- View Factor to Ground
  ,                                       !- Number of Vertices
  14.63, 0, 0,                            !- X,Y,Z Vertex 1 {m}
  14.63, -18.82, 0,                       !- X,Y,Z Vertex 2 {m}
  0, -18.82, 0,                           !- X,Y,Z Vertex 3 {m}
  0, 0, 0;                                !- X,Y,Z Vertex 4 {m}

OS:Surface,
  {abd57468-fe04-49c0-a33f-64cfd4fff67a}, !- Handle
  Surface 2,                              !- Name
  Wall,                                   !- Surface Type
  ,                                       !- Construction Name
  {be2c85a7-6d3d-47c6-88ed-d8a7b2457b1c}, !- Space Name
  Outdoors,                               !- Outside Boundary Condition
  ,                                       !- Outside Boundary Condition Object
  SunExposed,                             !- Sun Exposure
  WindExposed,                            !- Wind Exposure
  ,                                       !- View Factor to Ground
  ,                                       !- Number of Vertices
  7.315, 0, 1.18635,                      !- X,Y,Z Vertex 1 {m}
  7.315, 0, 0,                            !- X,Y,Z Vertex 2 {m}
  0, 0, 0,                                !- X,Y,Z Vertex 3 {m}
  0, 0, 1.18635;                          !- X,Y,Z Vertex 4 {m}

OS:Surface,
  {6f75fd36-5235-46d4-8df8-675a731210f9}, !- Handle
  Surface 3,                              !- Name
  Wall,                                   !- Surface Type
  ,                                       !- Construction Name
  {be2c85a7-6d3d-47c6-88ed-d8a7b2457b1c}, !- Space Name
  Outdoors,                               !- Outside Boundary Condition
  ,                                       !- Outside Boundary Condition Object
  SunExposed,                             !- Sun Exposure
  WindExposed,                            !- Wind Exposure
  ,                                       !- View Factor to Ground
  ,                                       !- Number of Vertices
  14.63, 0, 1.18635,                      !- X,Y,Z Vertex 1 {m}
  14.63, 0, 0,                            !- X,Y,Z Vertex 2 {m}
  7.315, 0, 0,                            !- X,Y,Z Vertex 3 {m}
  7.315, 0, 1.18635;                      !- X,Y,Z Vertex 4 {m}

OS:Surface,
  {55ab55ea-351b-46ce-8f0c-1247333946d0}, !- Handle
  Surface 4,                              !- Name
  Wall,                                   !- Surface Type
  ,                                       !- Construction Name
  {be2c85a7-6d3d-47c6-88ed-d8a7b2457b1c}, !- Space Name
  Outdoors,                               !- Outside Boundary Condition
  ,                                       !- Outside Boundary Condition Object
  SunExposed,                             !- Sun Exposure
  WindExposed,                            !- Wind Exposure
  ,                                       !- View Factor to Ground
  ,                                       !- Number of Vertices
  14.63, -9.41, 1.18635,                  !- X,Y,Z Vertex 1 {m}
  14.63, -9.41, 0,                        !- X,Y,Z Vertex 2 {m}
  14.63, 0, 0,                            !- X,Y,Z Vertex 3 {m}
  14.63, 0, 1.18635;                      !- X,Y,Z Vertex 4 {m}

OS:Surface,
  {b8ee0077-fc19-4c30-87ad-909dac6c3c94}, !- Handle
  Surface 5,                              !- Name
  Wall,                                   !- Surface Type
  ,                                       !- Construction Name
  {be2c85a7-6d3d-47c6-88ed-d8a7b2457b1c}, !- Space Name
  Outdoors,                               !- Outside Boundary Condition
  ,                                       !- Outside Boundary Condition Object
  SunExposed,                             !- Sun Exposure
  WindExposed,                            !- Wind Exposure
  ,                                       !- View Factor to Ground
  ,                                       !- Number of Vertices
  14.63, -18.82, 1.18635,                 !- X,Y,Z Vertex 1 {m}
  14.63, -18.82, 0,                       !- X,Y,Z Vertex 2 {m}
  14.63, -9.41, 0,                        !- X,Y,Z Vertex 3 {m}
  14.63, -9.41, 1.18635;                  !- X,Y,Z Vertex 4 {m}

OS:Surface,
  {98ddff42-12a6-4bb8-b44a-549805e03fbd}, !- Handle
  Surface 6,                              !- Name
  Wall,                                   !- Surface Type
  ,                                       !- Construction Name
  {be2c85a7-6d3d-47c6-88ed-d8a7b2457b1c}, !- Space Name
  Outdoors,                               !- Outside Boundary Condition
  ,                                       !- Outside Boundary Condition Object
  SunExposed,                             !- Sun Exposure
  WindExposed,                            !- Wind Exposure
  ,                                       !- View Factor to Ground
  ,                                       !- Number of Vertices
  7.315, -18.82, 1.18635,                 !- X,Y,Z Vertex 1 {m}
  7.315, -18.82, 0,                       !- X,Y,Z Vertex 2 {m}
  14.63, -18.82, 0,                       !- X,Y,Z Vertex 3 {m}
  14.63, -18.82, 1.18635;                 !- X,Y,Z Vertex 4 {m}

OS:Surface,
  {9c52ce25-f4a3-4121-a910-7e496c69a847}, !- Handle
  Surface 7,                              !- Name
  Wall,                                   !- Surface Type
  ,                                       !- Construction Name
  {be2c85a7-6d3d-47c6-88ed-d8a7b2457b1c}, !- Space Name
  Outdoors,                               !- Outside Boundary Condition
  ,                                       !- Outside Boundary Condition Object
  SunExposed,                             !- Sun Exposure
  WindExposed,                            !- Wind Exposure
  ,                                       !- View Factor to Ground
  ,                                       !- Number of Vertices
  0, -18.82, 1.18635,                     !- X,Y,Z Vertex 1 {m}
  0, -18.82, 0,                           !- X,Y,Z Vertex 2 {m}
  7.315, -18.82, 0,                       !- X,Y,Z Vertex 3 {m}
  7.315, -18.82, 1.18635;                 !- X,Y,Z Vertex 4 {m}

OS:Surface,
  {313d47d3-dec3-40f6-93ec-83e00baa1e49}, !- Handle
  Surface 8,                              !- Name
  Wall,                                   !- Surface Type
  ,                                       !- Construction Name
  {be2c85a7-6d3d-47c6-88ed-d8a7b2457b1c}, !- Space Name
  Outdoors,                               !- Outside Boundary Condition
  ,                                       !- Outside Boundary Condition Object
  SunExposed,                             !- Sun Exposure
  WindExposed,                            !- Wind Exposure
  ,                                       !- View Factor to Ground
  ,                                       !- Number of Vertices
  0, -9.41, 1.18635,                      !- X,Y,Z Vertex 1 {m}
  0, -9.41, 0,                            !- X,Y,Z Vertex 2 {m}
  0, -18.82, 0,                           !- X,Y,Z Vertex 3 {m}
  0, -18.82, 1.18635;                     !- X,Y,Z Vertex 4 {m}

OS:Surface,
  {11fd56e5-7f6d-4766-883b-a79721852f58}, !- Handle
  Surface 9,                              !- Name
  Wall,                                   !- Surface Type
  ,                                       !- Construction Name
  {be2c85a7-6d3d-47c6-88ed-d8a7b2457b1c}, !- Space Name
  Outdoors,                               !- Outside Boundary Condition
  ,                                       !- Outside Boundary Condition Object
  SunExposed,                             !- Sun Exposure
  WindExposed,                            !- Wind Exposure
  ,                                       !- View Factor to Ground
  ,                                       !- Number of Vertices
  0, 0, 1.18635,                          !- X,Y,Z Vertex 1 {m}
  0, 0, 0,                                !- X,Y,Z Vertex 2 {m}
  0, -9.41, 0,                            !- X,Y,Z Vertex 3 {m}
  0, -9.41, 1.18635;                      !- X,Y,Z Vertex 4 {m}

OS:Surface,
  {47fefd25-1dc4-446f-80bc-53559bd6926a}, !- Handle
  Surface 10,                             !- Name
  RoofCeiling,                            !- Surface Type
  ,                                       !- Construction Name
  {be2c85a7-6d3d-47c6-88ed-d8a7b2457b1c}, !- Space Name
  Surface,                                !- Outside Boundary Condition
  {5fb82090-3c04-4a03-8647-ad57bdedd530}, !- Outside Boundary Condition Object
  NoSun,                                  !- Sun Exposure
  NoWind,                                 !- Wind Exposure
  ,                                       !- View Factor to Ground
  ,                                       !- Number of Vertices
  14.63, -18.82, 1.18635,                 !- X,Y,Z Vertex 1 {m}
  14.63, 0, 1.18635,                      !- X,Y,Z Vertex 2 {m}
  0, 0, 1.18635,                          !- X,Y,Z Vertex 3 {m}
  0, -18.82, 1.18635;                     !- X,Y,Z Vertex 4 {m}

OS:BuildingStory,
  {3fcc2400-6042-4df0-b641-99ac980149b2}, !- Handle
  rectangle1:Story 2,                     !- Name
  1.18635,                                !- Nominal Z Coordinate {m}
  0.9273,                                 !- Nominal Floor to Floor Height {m}
  ,                                       !- Default Construction Set Name
  ,                                       !- Default Schedule Set Name
  {c41b603b-0139-426f-a7cb-d446faf8dad3}; !- Group Rendering Name

OS:Space,
  {eeb001c3-4133-4448-a204-1dd5ef3f1d2c}, !- Handle
  0 Core Space 1,                         !- Name
  ,                                       !- Space Type Name
  ,                                       !- Default Construction Set Name
  ,                                       !- Default Schedule Set Name
  -0,                                     !- Direction of Relative North {deg}
  3.46,                                   !- X Origin {m}
  -2.81,                                  !- Y Origin {m}
  1.18635,                                !- Z Origin {m}
  {3fcc2400-6042-4df0-b641-99ac980149b2}, !- Building Story Name
  {a7d7546b-1fd4-463f-bd9d-92e3bbac0d46}; !- Thermal Zone Name

OS:Surface,
  {5fb82090-3c04-4a03-8647-ad57bdedd530}, !- Handle
  Surface 11,                             !- Name
  Floor,                                  !- Surface Type
  ,                                       !- Construction Name
  {eeb001c3-4133-4448-a204-1dd5ef3f1d2c}, !- Space Name
  Surface,                                !- Outside Boundary Condition
  {47fefd25-1dc4-446f-80bc-53559bd6926a}, !- Outside Boundary Condition Object
  NoSun,                                  !- Sun Exposure
  NoWind,                                 !- Wind Exposure
  ,                                       !- View Factor to Ground
  ,                                       !- Number of Vertices
  14.63, 0, 0,                            !- X,Y,Z Vertex 1 {m}
  14.63, -18.82, 0,                       !- X,Y,Z Vertex 2 {m}
  0, -18.82, 0,                           !- X,Y,Z Vertex 3 {m}
  0, 0, 0;                                !- X,Y,Z Vertex 4 {m}

OS:Surface,
  {215f9227-ca45-49d8-9e4c-4f62412b2900}, !- Handle
  Surface 12,                             !- Name
  Wall,                                   !- Surface Type
  ,                                       !- Construction Name
  {eeb001c3-4133-4448-a204-1dd5ef3f1d2c}, !- Space Name
  Outdoors,                               !- Outside Boundary Condition
  ,                                       !- Outside Boundary Condition Object
  SunExposed,                             !- Sun Exposure
  WindExposed,                            !- Wind Exposure
  ,                                       !- View Factor to Ground
  ,                                       !- Number of Vertices
  7.315, 0, 0.9273,                       !- X,Y,Z Vertex 1 {m}
  7.315, 0, 0,                            !- X,Y,Z Vertex 2 {m}
  0, 0, 0,                                !- X,Y,Z Vertex 3 {m}
  0, 0, 0.9273;                           !- X,Y,Z Vertex 4 {m}

OS:Surface,
  {741e3a81-a774-433b-ac89-8fbead86799d}, !- Handle
  Surface 13,                             !- Name
  Wall,                                   !- Surface Type
  ,                                       !- Construction Name
  {eeb001c3-4133-4448-a204-1dd5ef3f1d2c}, !- Space Name
  Outdoors,                               !- Outside Boundary Condition
  ,                                       !- Outside Boundary Condition Object
  SunExposed,                             !- Sun Exposure
  WindExposed,                            !- Wind Exposure
  ,                                       !- View Factor to Ground
  ,                                       !- Number of Vertices
  14.63, 0, 0.9273,                       !- X,Y,Z Vertex 1 {m}
  14.63, 0, 0,                            !- X,Y,Z Vertex 2 {m}
  7.315, 0, 0,                            !- X,Y,Z Vertex 3 {m}
  7.315, 0, 0.9273;                       !- X,Y,Z Vertex 4 {m}

OS:Surface,
  {abaeb1c4-be22-4f5d-8a16-e8f2b72d1e09}, !- Handle
  Surface 14,                             !- Name
  Wall,                                   !- Surface Type
  ,                                       !- Construction Name
  {eeb001c3-4133-4448-a204-1dd5ef3f1d2c}, !- Space Name
  Outdoors,                               !- Outside Boundary Condition
  ,                                       !- Outside Boundary Condition Object
  SunExposed,                             !- Sun Exposure
  WindExposed,                            !- Wind Exposure
  ,                                       !- View Factor to Ground
  ,                                       !- Number of Vertices
  14.63, -9.41, 0.9273,                   !- X,Y,Z Vertex 1 {m}
  14.63, -9.41, 0,                        !- X,Y,Z Vertex 2 {m}
  14.63, 0, 0,                            !- X,Y,Z Vertex 3 {m}
  14.63, 0, 0.9273;                       !- X,Y,Z Vertex 4 {m}

OS:Surface,
  {e6b186c2-aecb-43ad-9841-625afe47cb07}, !- Handle
  Surface 15,                             !- Name
  Wall,                                   !- Surface Type
  ,                                       !- Construction Name
  {eeb001c3-4133-4448-a204-1dd5ef3f1d2c}, !- Space Name
  Outdoors,                               !- Outside Boundary Condition
  ,                                       !- Outside Boundary Condition Object
  SunExposed,                             !- Sun Exposure
  WindExposed,                            !- Wind Exposure
  ,                                       !- View Factor to Ground
  ,                                       !- Number of Vertices
  14.63, -18.82, 0.9273,                  !- X,Y,Z Vertex 1 {m}
  14.63, -18.82, 0,                       !- X,Y,Z Vertex 2 {m}
  14.63, -9.41, 0,                        !- X,Y,Z Vertex 3 {m}
  14.63, -9.41, 0.9273;                   !- X,Y,Z Vertex 4 {m}

OS:Surface,
  {66400709-fb4c-4e19-9ef1-237ae30af84f}, !- Handle
  Surface 16,                             !- Name
  Wall,                                   !- Surface Type
  ,                                       !- Construction Name
  {eeb001c3-4133-4448-a204-1dd5ef3f1d2c}, !- Space Name
  Outdoors,                               !- Outside Boundary Condition
  ,                                       !- Outside Boundary Condition Object
  SunExposed,                             !- Sun Exposure
  WindExposed,                            !- Wind Exposure
  ,                                       !- View Factor to Ground
  ,                                       !- Number of Vertices
  7.315, -18.82, 0.9273,                  !- X,Y,Z Vertex 1 {m}
  7.315, -18.82, 0,                       !- X,Y,Z Vertex 2 {m}
  14.63, -18.82, 0,                       !- X,Y,Z Vertex 3 {m}
  14.63, -18.82, 0.9273;                  !- X,Y,Z Vertex 4 {m}

OS:Surface,
  {fb014308-208b-4163-baa7-3180b2dbc400}, !- Handle
  Surface 17,                             !- Name
  Wall,                                   !- Surface Type
  ,                                       !- Construction Name
  {eeb001c3-4133-4448-a204-1dd5ef3f1d2c}, !- Space Name
  Outdoors,                               !- Outside Boundary Condition
  ,                                       !- Outside Boundary Condition Object
  SunExposed,                             !- Sun Exposure
  WindExposed,                            !- Wind Exposure
  ,                                       !- View Factor to Ground
  ,                                       !- Number of Vertices
  0, -18.82, 0.9273,                      !- X,Y,Z Vertex 1 {m}
  0, -18.82, 0,                           !- X,Y,Z Vertex 2 {m}
  7.315, -18.82, 0,                       !- X,Y,Z Vertex 3 {m}
  7.315, -18.82, 0.9273;                  !- X,Y,Z Vertex 4 {m}

OS:Surface,
  {4d6db5ff-507b-4dc4-9c16-6145a11a4407}, !- Handle
  Surface 18,                             !- Name
  Wall,                                   !- Surface Type
  ,                                       !- Construction Name
  {eeb001c3-4133-4448-a204-1dd5ef3f1d2c}, !- Space Name
  Outdoors,                               !- Outside Boundary Condition
  ,                                       !- Outside Boundary Condition Object
  SunExposed,                             !- Sun Exposure
  WindExposed,                            !- Wind Exposure
  ,                                       !- View Factor to Ground
  ,                                       !- Number of Vertices
  0, -9.41, 0.9273,                       !- X,Y,Z Vertex 1 {m}
  0, -9.41, 0,                            !- X,Y,Z Vertex 2 {m}
  0, -18.82, 0,                           !- X,Y,Z Vertex 3 {m}
  0, -18.82, 0.9273;                      !- X,Y,Z Vertex 4 {m}

OS:Surface,
  {d6e548a3-ebbd-40c1-bca5-5888b9c9ecff}, !- Handle
  Surface 19,                             !- Name
  Wall,                                   !- Surface Type
  ,                                       !- Construction Name
  {eeb001c3-4133-4448-a204-1dd5ef3f1d2c}, !- Space Name
  Outdoors,                               !- Outside Boundary Condition
  ,                                       !- Outside Boundary Condition Object
  SunExposed,                             !- Sun Exposure
  WindExposed,                            !- Wind Exposure
  ,                                       !- View Factor to Ground
  ,                                       !- Number of Vertices
  0, 0, 0.9273,                           !- X,Y,Z Vertex 1 {m}
  0, 0, 0,                                !- X,Y,Z Vertex 2 {m}
  0, -9.41, 0,                            !- X,Y,Z Vertex 3 {m}
  0, -9.41, 0.9273;                       !- X,Y,Z Vertex 4 {m}

OS:Surface,
  {08993f79-e0f2-40ed-9b83-02d1ba482fec}, !- Handle
  Surface 20,                             !- Name
  RoofCeiling,                            !- Surface Type
  ,                                       !- Construction Name
  {eeb001c3-4133-4448-a204-1dd5ef3f1d2c}, !- Space Name
  Surface,                                !- Outside Boundary Condition
  {0e2b7f8e-1d5a-4d2c-86ab-73ef5deec55f}, !- Outside Boundary Condition Object
  NoSun,                                  !- Sun Exposure
  NoWind,                                 !- Wind Exposure
  ,                                       !- View Factor to Ground
  ,                                       !- Number of Vertices
  14.63, -18.82, 0.9273,                  !- X,Y,Z Vertex 1 {m}
  14.63, 0, 0.9273,                       !- X,Y,Z Vertex 2 {m}
  0, 0, 0.9273,                           !- X,Y,Z Vertex 3 {m}
  0, -18.82, 0.9273;                      !- X,Y,Z Vertex 4 {m}

OS:SubSurface,
  {7afb81a6-2c5e-43db-aa5c-84c263a3f322}, !- Handle
  Sub Surface 1,                          !- Name
  FixedWindow,                            !- Sub Surface Type
  ,                                       !- Construction Name
  {215f9227-ca45-49d8-9e4c-4f62412b2900}, !- Surface Name
  ,                                       !- Outside Boundary Condition Object
  ,                                       !- View Factor to Ground
  ,                                       !- Shading Control Name
  ,                                       !- Frame and Divider Name
  ,                                       !- Multiplier
  ,                                       !- Number of Vertices
  7.2896, 0, 0.895080110335618,           !- X,Y,Z Vertex 1 {m}
  7.2896, 0, 0.0254,                      !- X,Y,Z Vertex 2 {m}
  0.0253999999999994, 0, 0.0254,          !- X,Y,Z Vertex 3 {m}
  0.0253999999999994, 0, 0.895080110335618; !- X,Y,Z Vertex 4 {m}

OS:SubSurface,
  {c02decdf-e265-4d6e-96d3-e950745117fe}, !- Handle
  Sub Surface 2,                          !- Name
  FixedWindow,                            !- Sub Surface Type
  ,                                       !- Construction Name
  {4d6db5ff-507b-4dc4-9c16-6145a11a4407}, !- Surface Name
  ,                                       !- Outside Boundary Condition Object
  ,                                       !- View Factor to Ground
  ,                                       !- Shading Control Name
  ,                                       !- Frame and Divider Name
  ,                                       !- Multiplier
  ,                                       !- Number of Vertices
  0, -9.4354, 0.893728180293188,          !- X,Y,Z Vertex 1 {m}
  0, -9.4354, 0.0254,                     !- X,Y,Z Vertex 2 {m}
  0, -18.7946, 0.0254,                    !- X,Y,Z Vertex 3 {m}
  0, -18.7946, 0.893728180293188;         !- X,Y,Z Vertex 4 {m}

OS:SubSurface,
  {95a5b9cd-5756-4277-bd15-5e9e9749317b}, !- Handle
  Sub Surface 3,                          !- Name
  FixedWindow,                            !- Sub Surface Type
  ,                                       !- Construction Name
  {66400709-fb4c-4e19-9ef1-237ae30af84f}, !- Surface Name
  ,                                       !- Outside Boundary Condition Object
  ,                                       !- View Factor to Ground
  ,                                       !- Shading Control Name
  ,                                       !- Frame and Divider Name
  ,                                       !- Multiplier
  ,                                       !- Number of Vertices
  7.3404, -18.82, 0.895080110335618,      !- X,Y,Z Vertex 1 {m}
  7.3404, -18.82, 0.0254,                 !- X,Y,Z Vertex 2 {m}
  14.6046, -18.82, 0.0254,                !- X,Y,Z Vertex 3 {m}
  14.6046, -18.82, 0.895080110335618;     !- X,Y,Z Vertex 4 {m}

OS:SubSurface,
  {70afe3ff-4098-4614-982c-63cc571e80fd}, !- Handle
  Sub Surface 4,                          !- Name
  FixedWindow,                            !- Sub Surface Type
  ,                                       !- Construction Name
  {741e3a81-a774-433b-ac89-8fbead86799d}, !- Surface Name
  ,                                       !- Outside Boundary Condition Object
  ,                                       !- View Factor to Ground
  ,                                       !- Shading Control Name
  ,                                       !- Frame and Divider Name
  ,                                       !- Multiplier
  ,                                       !- Number of Vertices
  14.6046, 0, 0.895080110335618,          !- X,Y,Z Vertex 1 {m}
  14.6046, 0, 0.0254,                     !- X,Y,Z Vertex 2 {m}
  7.3404, 0, 0.0254,                      !- X,Y,Z Vertex 3 {m}
  7.3404, 0, 0.895080110335618;           !- X,Y,Z Vertex 4 {m}

OS:SubSurface,
  {c6031e75-7f3e-4ab5-b7ae-129dbbfc9f91}, !- Handle
  Sub Surface 5,                          !- Name
  FixedWindow,                            !- Sub Surface Type
  ,                                       !- Construction Name
  {abaeb1c4-be22-4f5d-8a16-e8f2b72d1e09}, !- Surface Name
  ,                                       !- Outside Boundary Condition Object
  ,                                       !- View Factor to Ground
  ,                                       !- Shading Control Name
  ,                                       !- Frame and Divider Name
  ,                                       !- Multiplier
  ,                                       !- Number of Vertices
  14.63, -9.3846, 0.893728180293188,      !- X,Y,Z Vertex 1 {m}
  14.63, -9.3846, 0.0254,                 !- X,Y,Z Vertex 2 {m}
  14.63, -0.0254000000000012, 0.0254,     !- X,Y,Z Vertex 3 {m}
  14.63, -0.0254000000000012, 0.893728180293188; !- X,Y,Z Vertex 4 {m}

OS:SubSurface,
  {6d5801be-40ab-4784-a41d-d1c5fca5ae0a}, !- Handle
  Sub Surface 6,                          !- Name
  FixedWindow,                            !- Sub Surface Type
  ,                                       !- Construction Name
  {d6e548a3-ebbd-40c1-bca5-5888b9c9ecff}, !- Surface Name
  ,                                       !- Outside Boundary Condition Object
  ,                                       !- View Factor to Ground
  ,                                       !- Shading Control Name
  ,                                       !- Frame and Divider Name
  ,                                       !- Multiplier
  ,                                       !- Number of Vertices
  0, -0.0254, 0.893728180293188,          !- X,Y,Z Vertex 1 {m}
  0, -0.0254, 0.0254,                     !- X,Y,Z Vertex 2 {m}
  0, -9.3846, 0.0254,                     !- X,Y,Z Vertex 3 {m}
  0, -9.3846, 0.893728180293188;          !- X,Y,Z Vertex 4 {m}

OS:SubSurface,
  {8e71222d-5c50-456c-930c-551dfaa0ac2c}, !- Handle
  Sub Surface 7,                          !- Name
  FixedWindow,                            !- Sub Surface Type
  ,                                       !- Construction Name
  {e6b186c2-aecb-43ad-9841-625afe47cb07}, !- Surface Name
  ,                                       !- Outside Boundary Condition Object
  ,                                       !- View Factor to Ground
  ,                                       !- Shading Control Name
  ,                                       !- Frame and Divider Name
  ,                                       !- Multiplier
  ,                                       !- Number of Vertices
  14.63, -18.7946, 0.893728180293188,     !- X,Y,Z Vertex 1 {m}
  14.63, -18.7946, 0.0254,                !- X,Y,Z Vertex 2 {m}
  14.63, -9.4354, 0.0254,                 !- X,Y,Z Vertex 3 {m}
  14.63, -9.4354, 0.893728180293188;      !- X,Y,Z Vertex 4 {m}

OS:SubSurface,
  {38bfbad8-2f25-4d11-a9d9-5950b87c5138}, !- Handle
  Sub Surface 8,                          !- Name
  FixedWindow,                            !- Sub Surface Type
  ,                                       !- Construction Name
  {fb014308-208b-4163-baa7-3180b2dbc400}, !- Surface Name
  ,                                       !- Outside Boundary Condition Object
  ,                                       !- View Factor to Ground
  ,                                       !- Shading Control Name
  ,                                       !- Frame and Divider Name
  ,                                       !- Multiplier
  ,                                       !- Number of Vertices
  0.0254, -18.82, 0.895080110335618,      !- X,Y,Z Vertex 1 {m}
  0.0254, -18.82, 0.0254,                 !- X,Y,Z Vertex 2 {m}
  7.2896, -18.82, 0.0254,                 !- X,Y,Z Vertex 3 {m}
  7.2896, -18.82, 0.895080110335618;      !- X,Y,Z Vertex 4 {m}

OS:BuildingStory,
  {83463543-6337-4529-93b6-3f0f41c2b90e}, !- Handle
  rectangle1:Story 3,                     !- Name
  2.11365,                                !- Nominal Z Coordinate {m}
  1.18635,                                !- Nominal Floor to Floor Height {m}
  ,                                       !- Default Construction Set Name
  ,                                       !- Default Schedule Set Name
  {f7e5e663-90e1-4e28-973c-916dbb58ffc4}; !- Group Rendering Name

OS:Space,
  {dc76dd76-dd84-4403-8efd-eeab8aa6ece4}, !- Handle
  0 Core Space 2,                         !- Name
  ,                                       !- Space Type Name
  ,                                       !- Default Construction Set Name
  ,                                       !- Default Schedule Set Name
  -0,                                     !- Direction of Relative North {deg}