
OS:Version,
  {770120ec-21e1-4a36-a245-006774b86975}, !- Handle
  1.7.0;                                  !- Version Identifier

OS:BuildingStory,
  {8175d720-4821-4fa8-b305-1be2c9dceb36}, !- Handle
  rectangle1:Story 1,                     !- Name
  0,                                      !- Nominal Z Coordinate {m}
  1.18635,                                !- Nominal Floor to Floor Height {m}
  ,                                       !- Default Construction Set Name
  ,                                       !- Default Schedule Set Name
  {9111eb72-dd28-40d0-9991-c80e0ea35575}; !- Group Rendering Name

OS:Space,
  {7af110c7-3bc3-41e3-9b63-184929970184}, !- Handle
  0 Core Space,                           !- Name
  ,                                       !- Space Type Name
  ,                                       !- Default Construction Set Name
  ,                                       !- Default Schedule Set Name
  -0,                                     !- Direction of Relative North {deg}
  3.46,                                   !- X Origin {m}
  -2.81,                                  !- Y Origin {m}
  0,                                      !- Z Origin {m}
  {8175d720-4821-4fa8-b305-1be2c9dceb36}, !- Building Story Name
  {b2c391e5-9bee-462e-b85e-4b1995b043f5}; !- Thermal Zone Name

OS:Surface,
  {3eaf7b0b-376c-4c54-8992-98b9ee51905c}, !- Handle
  Surface 1,                              !- Name
  Floor,                                  !- Surface Type
  ,                                       !- Construction Name
  {7af110c7-3bc3-41e3-9b63-184929970184}, !- Space Name
  Ground,                                 !- Outside Boundary Condition
  ,                                       !- Outside Boundary Condition Object
  NoSun,                                  !- Sun Exposure
  NoWind,                                 !- Wind Exposure
  ,                                       !- View Factor to Ground
  ,                                       !- Number of Vertices
  14.63, 0, 0,                            !- X,Y,Z Vertex 1 {m}
  14.63, -18.82, 0,                       !- X,Y,Z Vertex 2 {m}
  0, -18.82, 0,                           !- X,Y,Z Vertex 3 {m}
  0, 0, 0;                                !- X,Y,Z Vertex 4 {m}

OS:Surface,
  {0c1de371-0ba8-4542-a856-c728ac8bdc94}, !- Handle
  Surface 2,                              !- Name
  Wall,                                   !- Surface Type
  ,                                       !- Construction Name
  {7af110c7-3bc3-41e3-9b63-184929970184}, !- Space Name
  Outdoors,                               !- Outside Boundary Condition
  ,                                       !- Outside Boundary Condition Object
  SunExposed,                             !- Sun Exposure
  WindExposed,                            !- Wind Exposure
  ,                                       !- View Factor to Ground
  ,                                       !- Number of Vertices
  7.315, 0, 1.18635,                      !- X,Y,Z Vertex 1 {m}
  7.315, 0, 0,                            !- X,Y,Z Vertex 2 {m}
  0, 0, 0,                                !- X,Y,Z Vertex 3 {m}
  0, 0, 1.18635;                          !- X,Y,Z Vertex 4 {m}

OS:Surface,
  {a797afe8-5a65-489d-9561-fc3dc6c7c6fb}, !- Handle
  Surface 3,                              !- Name
  Wall,                                   !- Surface Type
  ,                                       !- Construction Name
  {7af110c7-3bc3-41e3-9b63-184929970184}, !- Space Name
  Outdoors,                               !- Outside Boundary Condition
  ,                                       !- Outside Boundary Condition Object
  SunExposed,                             !- Sun Exposure
  WindExposed,                            !- Wind Exposure
  ,                                       !- View Factor to Ground
  ,                                       !- Number of Vertices
  14.63, 0, 1.18635,                      !- X,Y,Z Vertex 1 {m}
  14.63, 0, 0,                            !- X,Y,Z Vertex 2 {m}
  7.315, 0, 0,                            !- X,Y,Z Vertex 3 {m}
  7.315, 0, 1.18635;                      !- X,Y,Z Vertex 4 {m}

OS:Surface,
  {ed632cf1-20bd-42e8-9035-7b2087e8e19d}, !- Handle
  Surface 4,                              !- Name
  Wall,                                   !- Surface Type
  ,                                       !- Construction Name
  {7af110c7-3bc3-41e3-9b63-184929970184}, !- Space Name
  Outdoors,                               !- Outside Boundary Condition
  ,                                       !- Outside Boundary Condition Object
  SunExposed,                             !- Sun Exposure
  WindExposed,                            !- Wind Exposure
  ,                                       !- View Factor to Ground
  ,                                       !- Number of Vertices
  14.63, -9.41, 1.18635,                  !- X,Y,Z Vertex 1 {m}
  14.63, -9.41, 0,                        !- X,Y,Z Vertex 2 {m}
  14.63, 0, 0,                            !- X,Y,Z Vertex 3 {m}
  14.63, 0, 1.18635;                      !- X,Y,Z Vertex 4 {m}

OS:Surface,
  {88c4d673-cca7-4bbd-a1f5-1f0f37bae840}, !- Handle
  Surface 5,                              !- Name
  Wall,                                   !- Surface Type
  ,                                       !- Construction Name
  {7af110c7-3bc3-41e3-9b63-184929970184}, !- Space Name
  Outdoors,                               !- Outside Boundary Condition
  ,                                       !- Outside Boundary Condition Object
  SunExposed,                             !- Sun Exposure
  WindExposed,                            !- Wind Exposure
  ,                                       !- View Factor to Ground
  ,                                       !- Number of Vertices
  14.63, -18.82, 1.18635,                 !- X,Y,Z Vertex 1 {m}
  14.63, -18.82, 0,                       !- X,Y,Z Vertex 2 {m}
  14.63, -9.41, 0,                        !- X,Y,Z Vertex 3 {m}
  14.63, -9.41, 1.18635;                  !- X,Y,Z Vertex 4 {m}

OS:Surface,
  {1c777fe8-7eee-4d2d-858a-3f142179e6a7}, !- Handle
  Surface 6,                              !- Name
  Wall,                                   !- Surface Type
  ,                                       !- Construction Name
  {7af110c7-3bc3-41e3-9b63-184929970184}, !- Space Name
  Outdoors,                               !- Outside Boundary Condition
  ,                                       !- Outside Boundary Condition Object
  SunExposed,                             !- Sun Exposure
  WindExposed,                            !- Wind Exposure
  ,                                       !- View Factor to Ground
  ,                                       !- Number of Vertices
  7.315, -18.82, 1.18635,                 !- X,Y,Z Vertex 1 {m}
  7.315, -18.82, 0,                       !- X,Y,Z Vertex 2 {m}
  14.63, -18.82, 0,                       !- X,Y,Z Vertex 3 {m}
  14.63, -18.82, 1.18635;                 !- X,Y,Z Vertex 4 {m}

OS:Surface,
  {fd04fa83-97a6-4cce-a209-52d8c9518f75}, !- Handle
  Surface 7,                              !- Name
  Wall,                                   !- Surface Type
  ,                                       !- Construction Name
  {7af110c7-3bc3-41e3-9b63-184929970184}, !- Space Name
  Outdoors,                               !- Outside Boundary Condition
  ,                                       !- Outside Boundary Condition Object
  SunExposed,                             !- Sun Exposure
  WindExposed,                            !- Wind Exposure
  ,                                       !- View Factor to Ground
  ,                                       !- Number of Vertices
  0, -18.82, 1.18635,                     !- X,Y,Z Vertex 1 {m}
  0, -18.82, 0,                           !- X,Y,Z Vertex 2 {m}
  7.315, -18.82, 0,                       !- X,Y,Z Vertex 3 {m}
  7.315, -18.82, 1.18635;                 !- X,Y,Z Vertex 4 {m}

OS:Surface,
  {8e58d9e0-667e-496a-85c4-9ace8faf8267}, !- Handle
  Surface 8,                              !- Name
  Wall,                                   !- Surface Type
  ,                                       !- Construction Name
  {7af110c7-3bc3-41e3-9b63-184929970184}, !- Space Name
  Outdoors,                               !- Outside Boundary Condition
  ,                                       !- Outside Boundary Condition Object
  SunExposed,                             !- Sun Exposure
  WindExposed,                            !- Wind Exposure
  ,                                       !- View Factor to Ground
  ,                                       !- Number of Vertices
  0, -9.41, 1.18635,                      !- X,Y,Z Vertex 1 {m}
  0, -9.41, 0,                            !- X,Y,Z Vertex 2 {m}
  0, -18.82, 0,                           !- X,Y,Z Vertex 3 {m}
  0, -18.82, 1.18635;                     !- X,Y,Z Vertex 4 {m}

OS:Surface,
  {12e17537-9d2f-4b13-901d-f6a072d104f2}, !- Handle
  Surface 9,                              !- Name
  Wall,                                   !- Surface Type
  ,                                       !- Construction Name
  {7af110c7-3bc3-41e3-9b63-184929970184}, !- Space Name
  Outdoors,                               !- Outside Boundary Condition
  ,                                       !- Outside Boundary Condition Object
  SunExposed,                             !- Sun Exposure
  WindExposed,                            !- Wind Exposure
  ,                                       !- View Factor to Ground
  ,                                       !- Number of Vertices
  0, 0, 1.18635,                          !- X,Y,Z Vertex 1 {m}
  0, 0, 0,                                !- X,Y,Z Vertex 2 {m}
  0, -9.41, 0,                            !- X,Y,Z Vertex 3 {m}
  0, -9.41, 1.18635;                      !- X,Y,Z Vertex 4 {m}

OS:Surface,
  {c701ee7f-073a-4552-9a20-902a10ee5a0f}, !- Handle
  Surface 10,                             !- Name
  RoofCeiling,                            !- Surface Type
  ,                                       !- Construction Name
  {7af110c7-3bc3-41e3-9b63-184929970184}, !- Space Name
  Surface,                                !- Outside Boundary Condition
  {5b2fe972-712c-460e-8c0e-f2476ce46570}, !- Outside Boundary Condition Object
  NoSun,                                  !- Sun Exposure
  NoWind,                                 !- Wind Exposure
  ,                                       !- View Factor to Ground
  ,                                       !- Number of Vertices
  14.63, -18.82, 1.18635,                 !- X,Y,Z Vertex 1 {m}
  14.63, 0, 1.18635,                      !- X,Y,Z Vertex 2 {m}
  0, 0, 1.18635,                          !- X,Y,Z Vertex 3 {m}
  0, -18.82, 1.18635;                     !- X,Y,Z Vertex 4 {m}

OS:BuildingStory,
  {db2df3b2-ff15-49f6-b488-599cb456e848}, !- Handle
  rectangle1:Story 2,                     !- Name
  1.18635,                                !- Nominal Z Coordinate {m}
  0.9273,                                 !- Nominal Floor to Floor Height {m}
  ,                                       !- Default Construction Set Name
  ,                                       !- Default Schedule Set Name
  {3ce1cdc8-aab0-42f7-a740-18100357e829}; !- Group Rendering Name

OS:Space,
  {77e47738-a603-497c-af9b-3ef1288020c1}, !- Handle
  0 Core Space 1,                         !- Name
  ,                                       !- Space Type Name
  ,                                       !- Default Construction Set Name
  ,                                       !- Default Schedule Set Name
  -0,                                     !- Direction of Relative North {deg}
  3.46,                                   !- X Origin {m}
  -2.81,                                  !- Y Origin {m}
  1.18635,                                !- Z Origin {m}
  {db2df3b2-ff15-49f6-b488-599cb456e848}, !- Building Story Name
  {a0913565-a5e3-484d-ac17-84085d11ec7a}; !- Thermal Zone Name

OS:Surface,
  {5b2fe972-712c-460e-8c0e-f2476ce46570}, !- Handle
  Surface 11,                             !- Name
  Floor,                                  !- Surface Type
  ,                                       !- Construction Name
  {77e47738-a603-497c-af9b-3ef1288020c1}, !- Space Name
  Surface,                                !- Outside Boundary Condition
  {c701ee7f-073a-4552-9a20-902a10ee5a0f}, !- Outside Boundary Condition Object
  NoSun,                                  !- Sun Exposure
  NoWind,                                 !- Wind Exposure
  ,                                       !- View Factor to Ground
  ,                                       !- Number of Vertices
  14.63, 0, 0,                            !- X,Y,Z Vertex 1 {m}
  14.63, -18.82, 0,                       !- X,Y,Z Vertex 2 {m}
  0, -18.82, 0,                           !- X,Y,Z Vertex 3 {m}
  0, 0, 0;                                !- X,Y,Z Vertex 4 {m}

OS:Surface,
  {44377537-b0f5-4986-891c-8c2cc20adc61}, !- Handle
  Surface 12,                             !- Name
  Wall,                                   !- Surface Type
  ,                                       !- Construction Name
  {77e47738-a603-497c-af9b-3ef1288020c1}, !- Space Name
  Outdoors,                               !- Outside Boundary Condition
  ,                                       !- Outside Boundary Condition Object
  SunExposed,                             !- Sun Exposure
  WindExposed,                            !- Wind Exposure
  ,                                       !- View Factor to Ground
  ,                                       !- Number of Vertices
  7.315, 0, 0.9273,                       !- X,Y,Z Vertex 1 {m}
  7.315, 0, 0,                            !- X,Y,Z Vertex 2 {m}
  0, 0, 0,                                !- X,Y,Z Vertex 3 {m}
  0, 0, 0.9273;                           !- X,Y,Z Vertex 4 {m}

OS:Surface,
  {a49df2ce-3df8-409c-bc99-b129d179e65e}, !- Handle
  Surface 13,                             !- Name
  Wall,                                   !- Surface Type
  ,                                       !- Construction Name
  {77e47738-a603-497c-af9b-3ef1288020c1}, !- Space Name
  Outdoors,                               !- Outside Boundary Condition
  ,                                       !- Outside Boundary Condition Object
  SunExposed,                             !- Sun Exposure
  WindExposed,                            !- Wind Exposure
  ,                                       !- View Factor to Ground
  ,                                       !- Number of Vertices
  14.63, 0, 0.9273,                       !- X,Y,Z Vertex 1 {m}
  14.63, 0, 0,                            !- X,Y,Z Vertex 2 {m}
  7.315, 0, 0,                            !- X,Y,Z Vertex 3 {m}
  7.315, 0, 0.9273;                       !- X,Y,Z Vertex 4 {m}

OS:Surface,
  {b965bc25-3e78-4545-b04d-5a0d70971b73}, !- Handle
  Surface 14,                             !- Name
  Wall,                                   !- Surface Type
  ,                                       !- Construction Name
  {77e47738-a603-497c-af9b-3ef1288020c1}, !- Space Name
  Outdoors,                               !- Outside Boundary Condition
  ,                                       !- Outside Boundary Condition Object
  SunExposed,                             !- Sun Exposure
  WindExposed,                            !- Wind Exposure
  ,                                       !- View Factor to Ground
  ,                                       !- Number of Vertices
  14.63, -9.41, 0.9273,                   !- X,Y,Z Vertex 1 {m}
  14.63, -9.41, 0,                        !- X,Y,Z Vertex 2 {m}
  14.63, 0, 0,                            !- X,Y,Z Vertex 3 {m}
  14.63, 0, 0.9273;                       !- X,Y,Z Vertex 4 {m}

OS:Surface,
  {782307a1-09bd-418e-986a-4976b5e06fc2}, !- Handle
  Surface 15,                             !- Name
  Wall,                                   !- Surface Type
  ,                                       !- Construction Name
  {77e47738-a603-497c-af9b-3ef1288020c1}, !- Space Name
  Outdoors,                               !- Outside Boundary Condition
  ,                                       !- Outside Boundary Condition Object
  SunExposed,                             !- Sun Exposure
  WindExposed,                            !- Wind Exposure
  ,                                       !- View Factor to Ground
  ,                                       !- Number of Vertices
  14.63, -18.82, 0.9273,                  !- X,Y,Z Vertex 1 {m}
  14.63, -18.82, 0,                       !- X,Y,Z Vertex 2 {m}
  14.63, -9.41, 0,                        !- X,Y,Z Vertex 3 {m}
  14.63, -9.41, 0.9273;                   !- X,Y,Z Vertex 4 {m}

OS:Surface,
  {61e06998-94a2-4204-b1e7-437ebced6c69}, !- Handle
  Surface 16,                             !- Name
  Wall,                                   !- Surface Type
  ,                                       !- Construction Name
  {77e47738-a603-497c-af9b-3ef1288020c1}, !- Space Name
  Outdoors,                               !- Outside Boundary Condition
  ,                                       !- Outside Boundary Condition Object
  SunExposed,                             !- Sun Exposure
  WindExposed,                            !- Wind Exposure
  ,                                       !- View Factor to Ground
  ,                                       !- Number of Vertices
  7.315, -18.82, 0.9273,                  !- X,Y,Z Vertex 1 {m}
  7.315, -18.82, 0,                       !- X,Y,Z Vertex 2 {m}
  14.63, -18.82, 0,                       !- X,Y,Z Vertex 3 {m}
  14.63, -18.82, 0.9273;                  !- X,Y,Z Vertex 4 {m}

OS:Surface,
  {670bcb33-0f56-4342-bdc4-b79f9da8ef86}, !- Handle
  Surface 17,                             !- Name
  Wall,                                   !- Surface Type
  ,                                       !- Construction Name
  {77e47738-a603-497c-af9b-3ef1288020c1}, !- Space Name
  Outdoors,                               !- Outside Boundary Condition
  ,                                       !- Outside Boundary Condition Object
  SunExposed,                             !- Sun Exposure
  WindExposed,                            !- Wind Exposure
  ,                                       !- View Factor to Ground
  ,                                       !- Number of Vertices
  0, -18.82, 0.9273,                      !- X,Y,Z Vertex 1 {m}
  0, -18.82, 0,                           !- X,Y,Z Vertex 2 {m}
  7.315, -18.82, 0,                       !- X,Y,Z Vertex 3 {m}
  7.315, -18.82, 0.9273;                  !- X,Y,Z Vertex 4 {m}

OS:Surface,
  {8e04e52c-a937-4fde-87e0-d522c534058d}, !- Handle
  Surface 18,                             !- Name
  Wall,                                   !- Surface Type
  ,                                       !- Construction Name
  {77e47738-a603-497c-af9b-3ef1288020c1}, !- Space Name
  Outdoors,                               !- Outside Boundary Condition
  ,                                       !- Outside Boundary Condition Object
  SunExposed,                             !- Sun Exposure
  WindExposed,                            !- Wind Exposure
  ,                                       !- View Factor to Ground
  ,                                       !- Number of Vertices
  0, -9.41, 0.9273,                       !- X,Y,Z Vertex 1 {m}
  0, -9.41, 0,                            !- X,Y,Z Vertex 2 {m}
  0, -18.82, 0,                           !- X,Y,Z Vertex 3 {m}
  0, -18.82, 0.9273;                      !- X,Y,Z Vertex 4 {m}

OS:Surface,
  {e66c251b-c498-4d89-a4d3-7929633e7c73}, !- Handle
  Surface 19,                             !- Name
  Wall,                                   !- Surface Type
  ,                                       !- Construction Name
  {77e47738-a603-497c-af9b-3ef1288020c1}, !- Space Name
  Outdoors,                               !- Outside Boundary Condition
  ,                                       !- Outside Boundary Condition Object
  SunExposed,                             !- Sun Exposure
  WindExposed,                            !- Wind Exposure
  ,                                       !- View Factor to Ground
  ,                                       !- Number of Vertices
  0, 0, 0.9273,                           !- X,Y,Z Vertex 1 {m}
  0, 0, 0,                                !- X,Y,Z Vertex 2 {m}
  0, -9.41, 0,                            !- X,Y,Z Vertex 3 {m}
  0, -9.41, 0.9273;                       !- X,Y,Z Vertex 4 {m}

OS:Surface,
  {2a1bcb1a-c9b5-43f5-8731-05f992413dca}, !- Handle
  Surface 20,                             !- Name
  RoofCeiling,                            !- Surface Type
  ,                                       !- Construction Name
  {77e47738-a603-497c-af9b-3ef1288020c1}, !- Space Name
  Surface,                                !- Outside Boundary Condition
  {0c828003-68b1-4563-9d57-5d97336a132e}, !- Outside Boundary Condition Object
  NoSun,                                  !- Sun Exposure
  NoWind,                                 !- Wind Exposure
  ,                                       !- View Factor to Ground
  ,                                       !- Number of Vertices
  14.63, -18.82, 0.9273,                  !- X,Y,Z Vertex 1 {m}
  14.63, 0, 0.9273,                       !- X,Y,Z Vertex 2 {m}
  0, 0, 0.9273,                           !- X,Y,Z Vertex 3 {m}
  0, -18.82, 0.9273;                      !- X,Y,Z Vertex 4 {m}

OS:SubSurface,
  {2fe124d4-38dd-4a41-b73a-59e1bf692c3f}, !- Handle
  Sub Surface 1,                          !- Name
  FixedWindow,                            !- Sub Surface Type
  ,                                       !- Construction Name
  {44377537-b0f5-4986-891c-8c2cc20adc61}, !- Surface Name
  ,                                       !- Outside Boundary Condition Object
  ,                                       !- View Factor to Ground
  ,                                       !- Shading Control Name
  ,                                       !- Frame and Divider Name
  ,                                       !- Multiplier
  ,                                       !- Number of Vertices
  7.2896, 0, 0.895080110335618,           !- X,Y,Z Vertex 1 {m}
  7.2896, 0, 0.0254,                      !- X,Y,Z Vertex 2 {m}
  0.0253999999999994, 0, 0.0254,          !- X,Y,Z Vertex 3 {m}
  0.0253999999999994, 0, 0.895080110335618; !- X,Y,Z Vertex 4 {m}

OS:SubSurface,
  {cc9f3db6-3c6b-4121-910c-87dca560832b}, !- Handle
  Sub Surface 2,                          !- Name
  FixedWindow,                            !- Sub Surface Type
  ,                                       !- Construction Name
  {61e06998-94a2-4204-b1e7-437ebced6c69}, !- Surface Name
  ,                                       !- Outside Boundary Condition Object
  ,                                       !- View Factor to Ground
  ,                                       !- Shading Control Name
  ,                                       !- Frame and Divider Name
  ,                                       !- Multiplier
  ,                                       !- Number of Vertices
  7.3404, -18.82, 0.895080110335618,      !- X,Y,Z Vertex 1 {m}
  7.3404, -18.82, 0.0254,                 !- X,Y,Z Vertex 2 {m}
  14.6046, -18.82, 0.0254,                !- X,Y,Z Vertex 3 {m}
  14.6046, -18.82, 0.895080110335618;     !- X,Y,Z Vertex 4 {m}

OS:SubSurface,
  {b72d6098-8c67-42e7-bb9c-33c948d9066a}, !- Handle
  Sub Surface 3,                          !- Name
  FixedWindow,                            !- Sub Surface Type
  ,                                       !- Construction Name
  {670bcb33-0f56-4342-bdc4-b79f9da8ef86}, !- Surface Name
  ,                                       !- Outside Boundary Condition Object
  ,                                       !- View Factor to Ground
  ,                                       !- Shading Control Name
  ,                                       !- Frame and Divider Name
  ,                                       !- Multiplier
  ,                                       !- Number of Vertices
  0.0254, -18.82, 0.895080110335618,      !- X,Y,Z Vertex 1 {m}
  0.0254, -18.82, 0.0254,                 !- X,Y,Z Vertex 2 {m}
  7.2896, -18.82, 0.0254,                 !- X,Y,Z Vertex 3 {m}
  7.2896, -18.82, 0.895080110335618;      !- X,Y,Z Vertex 4 {m}

OS:SubSurface,
  {59f3ff21-ffda-44d7-babb-d4b4cf33db6a}, !- Handle
  Sub Surface 4,                          !- Name
  FixedWindow,                            !- Sub Surface Type
  ,                                       !- Construction Name
  {782307a1-09bd-418e-986a-4976b5e06fc2}, !- Surface Name
  ,                                       !- Outside Boundary Condition Object
  ,                                       !- View Factor to Ground
  ,                                       !- Shading Control Name
  ,                                       !- Frame and Divider Name
  ,                                       !- Multiplier
  ,                                       !- Number of Vertices
  14.63, -18.7946, 0.893728180293188,     !- X,Y,Z Vertex 1 {m}
  14.63, -18.7946, 0.0254,                !- X,Y,Z Vertex 2 {m}
  14.63, -9.4354, 0.0254,                 !- X,Y,Z Vertex 3 {m}
  14.63, -9.4354, 0.893728180293188;      !- X,Y,Z Vertex 4 {m}

OS:SubSurface,
  {a8f7b8f5-607b-45ef-a2bf-377333222b2f}, !- Handle
  Sub Surface 5,                          !- Name
  FixedWindow,                            !- Sub Surface Type
  ,                                       !- Construction Name
  {8e04e52c-a937-4fde-87e0-d522c534058d}, !- Surface Name
  ,                                       !- Outside Boundary Condition Object
  ,                                       !- View Factor to Ground
  ,                                       !- Shading Control Name
  ,                                       !- Frame and Divider Name
  ,                                       !- Multiplier
  ,                                       !- Number of Vertices
  0, -9.4354, 0.893728180293188,          !- X,Y,Z Vertex 1 {m}
  0, -9.4354, 0.0254,                     !- X,Y,Z Vertex 2 {m}
  0, -18.7946, 0.0254,                    !- X,Y,Z Vertex 3 {m}
  0, -18.7946, 0.893728180293188;         !- X,Y,Z Vertex 4 {m}

OS:SubSurface,
  {a3693133-3419-4c62-b125-37a444f2b358}, !- Handle
  Sub Surface 6,                          !- Name
  FixedWindow,                            !- Sub Surface Type
  ,                                       !- Construction Name
  {a49df2ce-3df8-409c-bc99-b129d179e65e}, !- Surface Name
  ,                                       !- Outside Boundary Condition Object
  ,                                       !- View Factor to Ground
  ,                                       !- Shading Control Name
  ,                                       !- Frame and Divider Name
  ,                                       !- Multiplier
  ,                                       !- Number of Vertices
  14.6046, 0, 0.895080110335618,          !- X,Y,Z Vertex 1 {m}
  14.6046, 0, 0.0254,                     !- X,Y,Z Vertex 2 {m}
  7.3404, 0, 0.0254,                      !- X,Y,Z Vertex 3 {m}
  7.3404, 0, 0.895080110335618;           !- X,Y,Z Vertex 4 {m}

OS:SubSurface,
  {157b58a6-681e-4972-aa96-eadbc41ce589}, !- Handle
  Sub Surface 7,                          !- Name
  FixedWindow,                            !- Sub Surface Type
  ,                                       !- Construction Name
  {b965bc25-3e78-4545-b04d-5a0d70971b73}, !- Surface Name
  ,                                       !- Outside Boundary Condition Object
  ,                                       !- View Factor to Ground
  ,                                       !- Shading Control Name
  ,                                       !- Frame and Divider Name
  ,                                       !- Multiplier
  ,                                       !- Number of Vertices
  14.63, -9.3846, 0.893728180293188,      !- X,Y,Z Vertex 1 {m}
  14.63, -9.3846, 0.0254,                 !- X,Y,Z Vertex 2 {m}
  14.63, -0.0254000000000012, 0.0254,     !- X,Y,Z Vertex 3 {m}
  14.63, -0.0254000000000012, 0.893728180293188; !- X,Y,Z Vertex 4 {m}

OS:SubSurface,
  {c86edc8f-1520-488b-bde9-ffe234a97b86}, !- Handle
  Sub Surface 8,                          !- Name
  FixedWindow,                            !- Sub Surface Type
  ,                                       !- Construction Name
  {e66c251b-c498-4d89-a4d3-7929633e7c73}, !- Surface Name
  ,                                       !- Outside Boundary Condition Object
  ,                                       !- View Factor to Ground
  ,                                       !- Shading Control Name
  ,                                       !- Frame and Divider Name
  ,                                       !- Multiplier
  ,                                       !- Number of Vertices
  0, -0.0254, 0.893728180293188,          !- X,Y,Z Vertex 1 {m}
  0, -0.0254, 0.0254,                     !- X,Y,Z Vertex 2 {m}
  0, -9.3846, 0.0254,                     !- X,Y,Z Vertex 3 {m}
  0, -9.3846, 0.893728180293188;          !- X,Y,Z Vertex 4 {m}

OS:BuildingStory,
  {d1c3969a-0387-455d-9df9-2c84186d3a6a}, !- Handle
  rectangle1:Story 3,                     !- Name
  2.11365,                                !- Nominal Z Coordinate {m}
  1.18635,                                !- Nominal Floor to Floor Height {m}
  ,                                       !- Default Construction Set Name
  ,                                       !- Default Schedule Set Name
  {63015aab-6540-4eaf-98d4-217196c97fc1}; !- Group Rendering Name

OS:Space,
  {32d639d0-8e66-4449-8624-6e5c2feb7e68}, !- Handle
  0 Core Space 2,                         !- Name
  ,                                       !- Space Type Name
  ,                                       !- Default Construction Set Name
  ,                                       !- Default Schedule Set Name
  -0,                                     !- Direction of Relative North {deg}