
OS:Version,
  {7fa0293e-22b6-4508-a538-778e3c7410a1}, !- Handle
  1.7.0;                                  !- Version Identifier

OS:BuildingStory,
  {f726697a-3c18-4f9a-a6dc-61b856873ccb}, !- Handle
  Rectangle:Story 1,                      !- Name
  0,                                      !- Nominal Z Coordinate {m}
  1.24875,                                !- Nominal Floor to Floor Height {m}
  ,                                       !- Default Construction Set Name
  ,                                       !- Default Schedule Set Name
  {0c689b32-59d7-4e18-b4a7-ae73554b2ad3}; !- Group Rendering Name

OS:Space,
  {16a6e762-5100-404d-8542-a271ac786b78}, !- Handle
  0 Core Space,                           !- Name
  ,                                       !- Space Type Name
  ,                                       !- Default Construction Set Name
  ,                                       !- Default Schedule Set Name
  -0,                                     !- Direction of Relative North {deg}
  5.92555482634326,                       !- X Origin {m}
  47.30544366138,                         !- Y Origin {m}
  0,                                      !- Z Origin {m}
  {f726697a-3c18-4f9a-a6dc-61b856873ccb}, !- Building Story Name
  {1af6931b-9540-46a6-bfe9-7af64a2e7f97}; !- Thermal Zone Name

OS:Surface,
  {5ea87f4a-6868-447c-8161-e36b435990a9}, !- Handle
  Surface 1,                              !- Name
  Floor,                                  !- Surface Type
  ,                                       !- Construction Name
  {16a6e762-5100-404d-8542-a271ac786b78}, !- Space Name
  Ground,                                 !- Outside Boundary Condition
  ,                                       !- Outside Boundary Condition Object
  NoSun,                                  !- Sun Exposure
  NoWind,                                 !- Wind Exposure
  ,                                       !- View Factor to Ground
  ,                                       !- Number of Vertices
  -2.66453525910038e-15, -2.8421709430404e-14, 0, !- X,Y,Z Vertex 1 {m}
  41.3798888350367, -41.3798888350368, 0, !- X,Y,Z Vertex 2 {m}
  -11.8511096526865, -94.61088732276, 0,  !- X,Y,Z Vertex 3 {m}
  -53.2309984877233, -53.2309984877233, 0; !- X,Y,Z Vertex 4 {m}

OS:Surface,
  {1a3c5288-8f13-46ef-ab6e-fd66d96679f3}, !- Handle
  Surface 2,                              !- Name
  Wall,                                   !- Surface Type
  ,                                       !- Construction Name
  {16a6e762-5100-404d-8542-a271ac786b78}, !- Space Name
  Outdoors,                               !- Outside Boundary Condition
  ,                                       !- Outside Boundary Condition Object
  SunExposed,                             !- Sun Exposure
  WindExposed,                            !- Wind Exposure
  ,                                       !- View Factor to Ground
  ,                                       !- Number of Vertices
  8.27597776700734, -8.27597776700733, 1.24875, !- X,Y,Z Vertex 1 {m}
  8.27597776700734, -8.27597776700733, 0, !- X,Y,Z Vertex 2 {m}
  -2.5102230945668e-15, -2.82673972658704e-14, 0, !- X,Y,Z Vertex 3 {m}
  -2.5102230945668e-15, -2.82673972658704e-14, 1.24875; !- X,Y,Z Vertex 4 {m}

OS:Surface,
  {143836e5-21b4-498f-9572-537d68388716}, !- Handle
  Surface 3,                              !- Name
  Wall,                                   !- Surface Type
  ,                                       !- Construction Name
  {16a6e762-5100-404d-8542-a271ac786b78}, !- Space Name
  Outdoors,                               !- Outside Boundary Condition
  ,                                       !- Outside Boundary Condition Object
  SunExposed,                             !- Sun Exposure
  WindExposed,                            !- Wind Exposure
  ,                                       !- View Factor to Ground
  ,                                       !- Number of Vertices
  16.5519555340147, -16.5519555340147, 1.24875, !- X,Y,Z Vertex 1 {m}
  16.5519555340147, -16.5519555340147, 0, !- X,Y,Z Vertex 2 {m}
  8.27597776700734, -8.27597776700733, 0, !- X,Y,Z Vertex 3 {m}
  8.27597776700734, -8.27597776700733, 1.24875; !- X,Y,Z Vertex 4 {m}

OS:Surface,
  {6e4f7c26-36a0-45a2-90de-c0b9a2b28992}, !- Handle
  Surface 4,                              !- Name
  Wall,                                   !- Surface Type
  ,                                       !- Construction Name
  {16a6e762-5100-404d-8542-a271ac786b78}, !- Space Name
  Outdoors,                               !- Outside Boundary Condition
  ,                                       !- Outside Boundary Condition Object
  SunExposed,                             !- Sun Exposure
  WindExposed,                            !- Wind Exposure
  ,                                       !- View Factor to Ground
  ,                                       !- Number of Vertices
  24.827933301022, -24.827933301022, 1.24875, !- X,Y,Z Vertex 1 {m}
  24.827933301022, -24.827933301022, 0,   !- X,Y,Z Vertex 2 {m}
  16.5519555340147, -16.5519555340147, 0, !- X,Y,Z Vertex 3 {m}
  16.5519555340147, -16.5519555340147, 1.24875; !- X,Y,Z Vertex 4 {m}

OS:Surface,
  {4a739c8c-98a2-49d2-a701-2cd74deaedcb}, !- Handle
  Surface 5,                              !- Name
  Wall,                                   !- Surface Type
  ,                                       !- Construction Name
  {16a6e762-5100-404d-8542-a271ac786b78}, !- Space Name
  Outdoors,                               !- Outside Boundary Condition
  ,                                       !- Outside Boundary Condition Object
  SunExposed,                             !- Sun Exposure
  WindExposed,                            !- Wind Exposure
  ,                                       !- View Factor to Ground
  ,                                       !- Number of Vertices
  33.1039110680294, -33.1039110680294, 1.24875, !- X,Y,Z Vertex 1 {m}
  33.1039110680294, -33.1039110680294, 0, !- X,Y,Z Vertex 2 {m}
  24.827933301022, -24.827933301022, 0,   !- X,Y,Z Vertex 3 {m}
  24.827933301022, -24.827933301022, 1.24875; !- X,Y,Z Vertex 4 {m}

OS:Surface,
  {2e0987e1-6aff-48a4-ba81-6d96e03b29a0}, !- Handle
  Surface 6,                              !- Name
  Wall,                                   !- Surface Type
  ,                                       !- Construction Name
  {16a6e762-5100-404d-8542-a271ac786b78}, !- Space Name
  Outdoors,                               !- Outside Boundary Condition
  ,                                       !- Outside Boundary Condition Object
  SunExposed,                             !- Sun Exposure
  WindExposed,                            !- Wind Exposure
  ,                                       !- View Factor to Ground
  ,                                       !- Number of Vertices
  41.3798888350367, -41.3798888350368, 1.24875, !- X,Y,Z Vertex 1 {m}
  41.3798888350367, -41.3798888350368, 0, !- X,Y,Z Vertex 2 {m}
  33.1039110680294, -33.1039110680294, 0, !- X,Y,Z Vertex 3 {m}
  33.1039110680294, -33.1039110680294, 1.24875; !- X,Y,Z Vertex 4 {m}

OS:Surface,
  {11ee6c35-af2a-4929-a310-e771db41aa4a}, !- Handle
  Surface 7,                              !- Name
  Wall,                                   !- Surface Type
  ,                                       !- Construction Name
  {16a6e762-5100-404d-8542-a271ac786b78}, !- Space Name
  Outdoors,                               !- Outside Boundary Condition
  ,                                       !- Outside Boundary Condition Object
  SunExposed,                             !- Sun Exposure
  WindExposed,                            !- Wind Exposure
  ,                                       !- View Factor to Ground
  ,                                       !- Number of Vertices
  33.7754604796477, -48.9843171904258, 1.24875, !- X,Y,Z Vertex 1 {m}
  33.7754604796477, -48.9843171904258, 0, !- X,Y,Z Vertex 2 {m}
  41.3798888350367, -41.3798888350368, 0, !- X,Y,Z Vertex 3 {m}
  41.3798888350367, -41.3798888350368, 1.24875; !- X,Y,Z Vertex 4 {m}

OS:Surface,
  {f65e6482-3505-43cb-b7a7-f54b79f9331c}, !- Handle
  Surface 8,                              !- Name
  Wall,                                   !- Surface Type
  ,                                       !- Construction Name
  {16a6e762-5100-404d-8542-a271ac786b78}, !- Space Name
  Outdoors,                               !- Outside Boundary Condition
  ,                                       !- Outside Boundary Condition Object
  SunExposed,                             !- Sun Exposure
  WindExposed,                            !- Wind Exposure
  ,                                       !- View Factor to Ground
  ,                                       !- Number of Vertices
  26.1710321242586, -56.5887455458149, 1.24875, !- X,Y,Z Vertex 1 {m}
  26.1710321242586, -56.5887455458149, 0, !- X,Y,Z Vertex 2 {m}
  33.7754604796477, -48.9843171904258, 0, !- X,Y,Z Vertex 3 {m}
  33.7754604796477, -48.9843171904258, 1.24875; !- X,Y,Z Vertex 4 {m}

OS:Surface,
  {f79a77d8-2913-46db-a81e-8ed47cbeb6c6}, !- Handle
  Surface 9,                              !- Name
  Wall,                                   !- Surface Type
  ,                                       !- Construction Name
  {16a6e762-5100-404d-8542-a271ac786b78}, !- Space Name
  Outdoors,                               !- Outside Boundary Condition
  ,                                       !- Outside Boundary Condition Object
  SunExposed,                             !- Sun Exposure
  WindExposed,                            !- Wind Exposure
  ,                                       !- View Factor to Ground
  ,                                       !- Number of Vertices
  18.5666037688696, -64.1931739012039, 1.24875, !- X,Y,Z Vertex 1 {m}
  18.5666037688696, -64.1931739012039, 0, !- X,Y,Z Vertex 2 {m}
  26.1710321242586, -56.5887455458149, 0, !- X,Y,Z Vertex 3 {m}
  26.1710321242586, -56.5887455458149, 1.24875; !- X,Y,Z Vertex 4 {m}

OS:Surface,
  {1c28c745-16ad-4be1-bc23-8c9bf3d7732d}, !- Handle
  Surface 10,                             !- Name
  Wall,                                   !- Surface Type
  ,                                       !- Construction Name
  {16a6e762-5100-404d-8542-a271ac786b78}, !- Space Name
  Outdoors,                               !- Outside Boundary Condition
  ,                                       !- Outside Boundary Condition Object
  SunExposed,                             !- Sun Exposure
  WindExposed,                            !- Wind Exposure
  ,                                       !- View Factor to Ground
  ,                                       !- Number of Vertices
  10.9621754134806, -71.7976022565929, 1.24875, !- X,Y,Z Vertex 1 {m}
  10.9621754134806, -71.7976022565929, 0, !- X,Y,Z Vertex 2 {m}
  18.5666037688696, -64.1931739012039, 0, !- X,Y,Z Vertex 3 {m}
  18.5666037688696, -64.1931739012039, 1.24875; !- X,Y,Z Vertex 4 {m}

OS:Surface,
  {fd0bd00a-0ef6-4ddc-ad31-ee730ffd3139}, !- Handle
  Surface 11,                             !- Name
  Wall,                                   !- Surface Type
  ,                                       !- Construction Name
  {16a6e762-5100-404d-8542-a271ac786b78}, !- Space Name
  Outdoors,                               !- Outside Boundary Condition
  ,                                       !- Outside Boundary Condition Object
  SunExposed,                             !- Sun Exposure
  WindExposed,                            !- Wind Exposure
  ,                                       !- View Factor to Ground
  ,                                       !- Number of Vertices
  3.35774705809156, -79.402030611982, 1.24875, !- X,Y,Z Vertex 1 {m}
  3.35774705809156, -79.402030611982, 0,  !- X,Y,Z Vertex 2 {m}
  10.9621754134806, -71.7976022565929, 0, !- X,Y,Z Vertex 3 {m}
  10.9621754134806, -71.7976022565929, 1.24875; !- X,Y,Z Vertex 4 {m}

OS:Surface,
  {9f07589a-dfe1-4d13-bf29-65333fb10b29}, !- Handle
  Surface 12,                             !- Name
  Wall,                                   !- Surface Type
  ,                                       !- Construction Name
  {16a6e762-5100-404d-8542-a271ac786b78}, !- Space Name
  Outdoors,                               !- Outside Boundary Condition
  ,                                       !- Outside Boundary Condition Object
  SunExposed,                             !- Sun Exposure
  WindExposed,                            !- Wind Exposure
  ,                                       !- View Factor to Ground
  ,                                       !- Number of Vertices
  -4.24668129729747, -87.006458967371, 1.24875, !- X,Y,Z Vertex 1 {m}
  -4.24668129729747, -87.006458967371, 0, !- X,Y,Z Vertex 2 {m}
  3.35774705809157, -79.402030611982, 0,  !- X,Y,Z Vertex 3 {m}
  3.35774705809157, -79.402030611982, 1.24875; !- X,Y,Z Vertex 4 {m}

OS:Surface,
  {a3fe5863-f711-4de3-b9f2-1244683d8d2f}, !- Handle
  Surface 13,                             !- Name
  Wall,                                   !- Surface Type
  ,                                       !- Construction Name
  {16a6e762-5100-404d-8542-a271ac786b78}, !- Space Name
  Outdoors,                               !- Outside Boundary Condition
  ,                                       !- Outside Boundary Condition Object
  SunExposed,                             !- Sun Exposure
  WindExposed,                            !- Wind Exposure
  ,                                       !- View Factor to Ground
  ,                                       !- Number of Vertices
  -11.8511096526865, -94.61088732276, 1.24875, !- X,Y,Z Vertex 1 {m}
  -11.8511096526865, -94.61088732276, 0,  !- X,Y,Z Vertex 2 {m}
  -4.24668129729748, -87.006458967371, 0, !- X,Y,Z Vertex 3 {m}
  -4.24668129729748, -87.006458967371, 1.24875; !- X,Y,Z Vertex 4 {m}

OS:Surface,
  {204b92af-e4a5-4a9f-987e-73c5cb742653}, !- Handle
  Surface 14,                             !- Name
  Wall,                                   !- Surface Type
  ,                                       !- Construction Name
  {16a6e762-5100-404d-8542-a271ac786b78}, !- Space Name
  Outdoors,                               !- Outside Boundary Condition
  ,                                       !- Outside Boundary Condition Object
  SunExposed,                             !- Sun Exposure
  WindExposed,                            !- Wind Exposure
  ,                                       !- View Factor to Ground
  ,                                       !- Number of Vertices
  -20.1270874196939, -86.3349095557527, 1.24875, !- X,Y,Z Vertex 1 {m}
  -20.1270874196939, -86.3349095557527, 0, !- X,Y,Z Vertex 2 {m}
  -11.8511096526865, -94.61088732276, 0,  !- X,Y,Z Vertex 3 {m}
  -11.8511096526865, -94.61088732276, 1.24875; !- X,Y,Z Vertex 4 {m}

OS:Surface,
  {1d6a82ea-3e75-4c07-b745-1f8abac4ab76}, !- Handle
  Surface 15,                             !- Name
  Wall,                                   !- Surface Type
  ,                                       !- Construction Name
  {16a6e762-5100-404d-8542-a271ac786b78}, !- Space Name
  Outdoors,                               !- Outside Boundary Condition
  ,                                       !- Outside Boundary Condition Object
  SunExposed,                             !- Sun Exposure
  WindExposed,                            !- Wind Exposure
  ,                                       !- View Factor to Ground
  ,                                       !- Number of Vertices
  -28.4030651867013, -78.0589317887453, 1.24875, !- X,Y,Z Vertex 1 {m}
  -28.4030651867013, -78.0589317887453, 0, !- X,Y,Z Vertex 2 {m}
  -20.1270874196939, -86.3349095557527, 0, !- X,Y,Z Vertex 3 {m}
  -20.1270874196939, -86.3349095557527, 1.24875; !- X,Y,Z Vertex 4 {m}

OS:Surface,
  {a1025470-4ad9-40a6-812a-144d493defe2}, !- Handle
  Surface 16,                             !- Name
  Wall,                                   !- Surface Type
  ,                                       !- Construction Name
  {16a6e762-5100-404d-8542-a271ac786b78}, !- Space Name
  Outdoors,                               !- Outside Boundary Condition
  ,                                       !- Outside Boundary Condition Object
  SunExposed,                             !- Sun Exposure
  WindExposed,                            !- Wind Exposure
  ,                                       !- View Factor to Ground
  ,                                       !- Number of Vertices
  -36.6790429537086, -69.782954021738, 1.24875, !- X,Y,Z Vertex 1 {m}
  -36.6790429537086, -69.782954021738, 0, !- X,Y,Z Vertex 2 {m}
  -28.4030651867013, -78.0589317887453, 0, !- X,Y,Z Vertex 3 {m}
  -28.4030651867013, -78.0589317887453, 1.24875; !- X,Y,Z Vertex 4 {m}

OS:Surface,
  {d97e1abf-a43c-4ccf-8890-66e5c0992b3b}, !- Handle
  Surface 17,                             !- Name
  Wall,                                   !- Surface Type
  ,                                       !- Construction Name
  {16a6e762-5100-404d-8542-a271ac786b78}, !- Space Name
  Outdoors,                               !- Outside Boundary Condition
  ,                                       !- Outside Boundary Condition Object
  SunExposed,                             !- Sun Exposure
  WindExposed,                            !- Wind Exposure
  ,                                       !- View Factor to Ground
  ,                                       !- Number of Vertices
  -44.955020720716, -61.5069762547306, 1.24875, !- X,Y,Z Vertex 1 {m}
  -44.955020720716, -61.5069762547306, 0, !- X,Y,Z Vertex 2 {m}
  -36.6790429537086, -69.782954021738, 0, !- X,Y,Z Vertex 3 {m}
  -36.6790429537086, -69.782954021738, 1.24875; !- X,Y,Z Vertex 4 {m}

OS:Surface,
  {e520bb38-8c9a-47c4-b898-f33fa8ac02cd}, !- Handle
  Surface 18,                             !- Name
  Wall,                                   !- Surface Type
  ,                                       !- Construction Name
  {16a6e762-5100-404d-8542-a271ac786b78}, !- Space Name
  Outdoors,                               !- Outside Boundary Condition
  ,                                       !- Outside Boundary Condition Object
  SunExposed,                             !- Sun Exposure
  WindExposed,                            !- Wind Exposure
  ,                                       !- View Factor to Ground
  ,                                       !- Number of Vertices
  -53.2309984877233, -53.2309984877233, 1.24875, !- X,Y,Z Vertex 1 {m}
  -53.2309984877233, -53.2309984877233, 0, !- X,Y,Z Vertex 2 {m}
  -44.955020720716, -61.5069762547306, 0, !- X,Y,Z Vertex 3 {m}
  -44.955020720716, -61.5069762547306, 1.24875; !- X,Y,Z Vertex 4 {m}

OS:Surface,
  {636e4c02-5b92-4be3-bd7f-1832437d937c}, !- Handle
  Surface 19,                             !- Name
  Wall,                                   !- Surface Type
  ,                                       !- Construction Name
  {16a6e762-5100-404d-8542-a271ac786b78}, !- Space Name
  Outdoors,                               !- Outside Boundary Condition
  ,                                       !- Outside Boundary Condition Object
  SunExposed,                             !- Sun Exposure
  WindExposed,                            !- Wind Exposure
  ,                                       !- View Factor to Ground
  ,                                       !- Number of Vertices
  -45.6265701323343, -45.6265701323343, 1.24875, !- X,Y,Z Vertex 1 {m}
  -45.6265701323343, -45.6265701323343, 0, !- X,Y,Z Vertex 2 {m}
  -53.2309984877233, -53.2309984877233, 0, !- X,Y,Z Vertex 3 {m}
  -53.2309984877233, -53.2309984877233, 1.24875; !- X,Y,Z Vertex 4 {m}

OS:Surface,
  {6ee07857-028b-4db0-9f05-bddf2d16b655}, !- Handle
  Surface 20,                             !- Name
  Wall,                                   !- Surface Type
  ,                                       !- Construction Name
  {16a6e762-5100-404d-8542-a271ac786b78}, !- Space Name
  Outdoors,                               !- Outside Boundary Condition
  ,                                       !- Outside Boundary Condition Object
  SunExposed,                             !- Sun Exposure
  WindExposed,                            !- Wind Exposure
  ,                                       !- View Factor to Ground
  ,                                       !- Number of Vertices
  -38.0221417769452, -38.0221417769452, 1.24875, !- X,Y,Z Vertex 1 {m}
  -38.0221417769452, -38.0221417769452, 0, !- X,Y,Z Vertex 2 {m}
  -45.6265701323343, -45.6265701323343, 0, !- X,Y,Z Vertex 3 {m}
  -45.6265701323343, -45.6265701323343, 1.24875; !- X,Y,Z Vertex 4 {m}

OS:Surface,
  {c5edd4e6-3cec-4e23-a5b0-463d7db79d68}, !- Handle
  Surface 21,                             !- Name
  Wall,                                   !- Surface Type
  ,                                       !- Construction Name
  {16a6e762-5100-404d-8542-a271ac786b78}, !- Space Name
  Outdoors,                               !- Outside Boundary Condition
  ,                                       !- Outside Boundary Condition Object
  SunExposed,                             !- Sun Exposure
  WindExposed,                            !- Wind Exposure
  ,                                       !- View Factor to Ground
  ,                                       !- Number of Vertices
  -30.4177134215562, -30.4177134215561, 1.24875, !- X,Y,Z Vertex 1 {m}
  -30.4177134215562, -30.4177134215561, 0, !- X,Y,Z Vertex 2 {m}
  -38.0221417769452, -38.0221417769452, 0, !- X,Y,Z Vertex 3 {m}
  -38.0221417769452, -38.0221417769452, 1.24875; !- X,Y,Z Vertex 4 {m}

OS:Surface,
  {81a4dd82-0994-4e4e-951c-6b7f2576dead}, !- Handle
  Surface 22,                             !- Name
  Wall,                                   !- Surface Type
  ,                                       !- Construction Name
  {16a6e762-5100-404d-8542-a271ac786b78}, !- Space Name
  Outdoors,                               !- Outside Boundary Condition
  ,                                       !- Outside Boundary Condition Object
  SunExposed,                             !- Sun Exposure
  WindExposed,                            !- Wind Exposure
  ,                                       !- View Factor to Ground
  ,                                       !- Number of Vertices
  -22.8132850661672, -22.8132850661671, 1.24875, !- X,Y,Z Vertex 1 {m}
  -22.8132850661672, -22.8132850661671, 0, !- X,Y,Z Vertex 2 {m}
  -30.4177134215562, -30.4177134215561, 0, !- X,Y,Z Vertex 3 {m}
  -30.4177134215562, -30.4177134215561, 1.24875; !- X,Y,Z Vertex 4 {m}

OS:Surface,
  {88af7b4a-7953-47e7-ba93-2b147998afe3}, !- Handle
  Surface 23,                             !- Name
  Wall,                                   !- Surface Type
  ,                                       !- Construction Name
  {16a6e762-5100-404d-8542-a271ac786b78}, !- Space Name
  Outdoors,                               !- Outside Boundary Condition
  ,                                       !- Outside Boundary Condition Object
  SunExposed,                             !- Sun Exposure
  WindExposed,                            !- Wind Exposure
  ,                                       !- View Factor to Ground
  ,                                       !- Number of Vertices
  -15.2088567107781, -15.2088567107781, 1.24875, !- X,Y,Z Vertex 1 {m}
  -15.2088567107781, -15.2088567107781, 0, !- X,Y,Z Vertex 2 {m}
  -22.8132850661672, -22.8132850661671, 0, !- X,Y,Z Vertex 3 {m}
  -22.8132850661672, -22.8132850661671, 1.24875; !- X,Y,Z Vertex 4 {m}

OS:Surface,
  {1e5de997-fd14-401b-8f2b-c4aa9a950bd9}, !- Handle
  Surface 24,                             !- Name
  Wall,                                   !- Surface Type
  ,                                       !- Construction Name
  {16a6e762-5100-404d-8542-a271ac786b78}, !- Space Name
  Outdoors,                               !- Outside Boundary Condition
  ,                                       !- Outside Boundary Condition Object
  SunExposed,                             !- Sun Exposure
  WindExposed,                            !- Wind Exposure
  ,                                       !- View Factor to Ground
  ,                                       !- Number of Vertices
  -7.60442835538904, -7.60442835538903, 1.24875, !- X,Y,Z Vertex 1 {m}
  -7.60442835538904, -7.60442835538903, 0, !- X,Y,Z Vertex 2 {m}
  -15.2088567107781, -15.2088567107781, 0, !- X,Y,Z Vertex 3 {m}
  -15.2088567107781, -15.2088567107781, 1.24875; !- X,Y,Z Vertex 4 {m}

OS:Surface,
  {1cbecba2-749d-49e9-bb8e-bea9af95d7ae}, !- Handle
  Surface 25,                             !- Name
  Wall,                                   !- Surface Type
  ,                                       !- Construction Name
  {16a6e762-5100-404d-8542-a271ac786b78}, !- Space Name
  Outdoors,                               !- Outside Boundary Condition
  ,                                       !- Outside Boundary Condition Object
  SunExposed,                             !- Sun Exposure
  WindExposed,                            !- Wind Exposure
  ,                                       !- View Factor to Ground
  ,                                       !- Number of Vertices
  -3.11140144585471e-15, -2.79748432436497e-14, 1.24875, !- X,Y,Z Vertex 1 {m}
  -3.11140144585471e-15, -2.79748432436497e-14, 0, !- X,Y,Z Vertex 2 {m}
  -7.60442835538904, -7.60442835538903, 0, !- X,Y,Z Vertex 3 {m}
  -7.60442835538904, -7.60442835538903, 1.24875; !- X,Y,Z Vertex 4 {m}

OS:Surface,
  {b19c843c-7c4b-493a-92c6-53b8b4c03936}, !- Handle
  Surface 26,                             !- Name
  RoofCeiling,                            !- Surface Type
  ,                                       !- Construction Name
  {16a6e762-5100-404d-8542-a271ac786b78}, !- Space Name
  Surface,                                !- Outside Boundary Condition
  {fba893ad-7202-4d40-b170-bcddeb1a71dc}, !- Outside Boundary Condition Object
  NoSun,                                  !- Sun Exposure
  NoWind,                                 !- Wind Exposure
  ,                                       !- View Factor to Ground
  ,                                       !- Number of Vertices
  -11.8511096526865, -94.61088732276, 1.24875, !- X,Y,Z Vertex 1 {m}
  41.3798888350367, -41.3798888350368, 1.24875, !- X,Y,Z Vertex 2 {m}
  -2.66453525910038e-15, -2.8421709430404e-14, 1.24875, !- X,Y,Z Vertex 3 {m}
  -53.2309984877233, -53.2309984877233, 1.24875; !- X,Y,Z Vertex 4 {m}

OS:BuildingStory,
  {76f87f3d-5318-40d1-a8db-29a020291676}, !- Handle
  Rectangle:Story 2,                      !- Name
  1.24875,                                !- Nominal Z Coordinate {m}
  0.8325,                                 !- Nominal Floor to Floor Height {m}
  ,                                       !- Default Construction Set Name
  ,                                       !- Default Schedule Set Name
  {0a2d618c-2c54-4f98-9631-e9f1a4916280}; !- Group Rendering Name

OS:Space,
  {7dd298b2-c7ab-4c13-8d8b-67697094bebe}, !- Handle
  0 Core Space 1,                         !- Name
  ,                                       !- Space Type Name
  ,                                       !- Default Construction Set Name
  ,                                       !- Default Schedule Set Name
  -0,                                     !- Direction of Relative North {deg}
  5.92555482634326,                       !- X Origin {m}
  47.30544366138,                         !- Y Origin {m}
  1.24875,                                !- Z Origin {m}
  {76f87f3d-5318-40d1-a8db-29a020291676}, !- Building Story Name
  {f1818b56-7985-46ff-9dc9-dcb1c217c7a3}; !- Thermal Zone Name

OS:Surface,
  {fba893ad-7202-4d40-b170-bcddeb1a71dc}, !- Handle
  Surface 27,                             !- Name
  Floor,                                  !- Surface Type
  ,                                       !- Construction Name
  {7dd298b2-c7ab-4c13-8d8b-67697094bebe}, !- Space Name
  Surface,                                !- Outside Boundary Condition
  {b19c843c-7c4b-493a-92c6-53b8b4c03936}, !- Outside Boundary Condition Object
  NoSun,                                  !- Sun Exposure
  NoWind,                                 !- Wind Exposure
  ,                                       !- View Factor to Ground
  ,                                       !- Number of Vertices
  -2.66453525910038e-15, -2.8421709430404e-14, 0, !- X,Y,Z Vertex 1 {m}
  41.3798888350367, -41.3798888350368, 0, !- X,Y,Z Vertex 2 {m}
  -11.8511096526865, -94.61088732276, 0,  !- X,Y,Z Vertex 3 {m}
  -53.2309984877233, -53.2309984877233, 0; !- X,Y,Z Vertex 4 {m}

OS:Surface,
  {5a995108-1a97-404b-b995-ebc38950bcf2}, !- Handle
  Surface 28,                             !- Name
  Wall,                                   !- Surface Type
  ,                                       !- Construction Name
  {7dd298b2-c7ab-4c13-8d8b-67697094bebe}, !- Space Name
  Outdoors,                               !- Outside Boundary Condition
  ,                                       !- Outside Boundary Condition Object
  SunExposed,                             !- Sun Exposure
  WindExposed,                            !- Wind Exposure
  ,                                       !- View Factor to Ground
  ,                                       !- Number of Vertices
  8.27597776700734, -8.27597776700733, 0.8325, !- X,Y,Z Vertex 1 {m}
  8.27597776700734, -8.27597776700733, 0, !- X,Y,Z Vertex 2 {m}
  -2.25498886448316e-15, -2.80121630357868e-14, 0, !- X,Y,Z Vertex 3 {m}
  -2.25498886448316e-15, -2.80121630357868e-14, 0.8325; !- X,Y,Z Vertex 4 {m}

OS:Surface,
  {69158502-c0e6-4842-9a7e-8812d97e71f7}, !- Handle
  Surface 29,                             !- Name
  Wall,                                   !- Surface Type
  ,                                       !- Construction Name
  {7dd298b2-c7ab-4c13-8d8b-67697094bebe}, !- Space Name
  Outdoors,                               !- Outside Boundary Condition
  ,                                       !- Outside Boundary Condition Object
  SunExposed,                             !- Sun Exposure
  WindExposed,                            !- Wind Exposure