
Version,
  8.2;                                    !- Version Identifier

LifeCycleCost:Parameters,
  {6524baac-e767-4122-b3b3-16eb267be62a}, !- Name
  EndOfYear,                              !- Discounting Convention
  ConstantDollar,                         !- Inflation Approach
  0.03,                                   !- Real Discount Rate
  ,                                       !- Nominal Discount Rate
  ,                                       !- Inflation
  ,                                       !- Base Date Month
  2011,                                   !- Base Date Year
  ,                                       !- Service Date Month
  2011,                                   !- Service Date Year
  25,                                     !- Length of Study Period in Years
  ,                                       !- Tax rate
  None;                                   !- Depreciation Method

LifeCycleCost:UsePriceEscalation,
  U.S. Avg  Commercial-Electricity,       !- Name
  Electricity,                            !- Resource
  2011,                                   !- Escalation Start Year
  January,                                !- Escalation Start Month
  0.9838,                                 !- Year Escalation 1
  0.9730,                                 !- Year Escalation 2
  0.9632,                                 !- Year Escalation 3
  0.9611,                                 !- Year Escalation 4
  0.9571,                                 !- Year Escalation 5
  0.9553,                                 !- Year Escalation 6
  0.9539,                                 !- Year Escalation 7
  0.9521,                                 !- Year Escalation 8
  0.9546,                                 !- Year Escalation 9
  0.9550,                                 !- Year Escalation 10
  0.9553,                                 !- Year Escalation 11
  0.9564,                                 !- Year Escalation 12
  0.9575,                                 !- Year Escalation 13
  0.9596,                                 !- Year Escalation 14
  0.9618,                                 !- Year Escalation 15
  0.9614,                                 !- Year Escalation 16
  0.9618,                                 !- Year Escalation 17
  0.9618,                                 !- Year Escalation 18
  0.9593,                                 !- Year Escalation 19
  0.9589,                                 !- Year Escalation 20
  0.9607,                                 !- Year Escalation 21
  0.9625,                                 !- Year Escalation 22
  0.9650,                                 !- Year Escalation 23
  0.9708,                                 !- Year Escalation 24
  0.9751,                                 !- Year Escalation 25
  0.9762,                                 !- Year Escalation 26
  0.9766,                                 !- Year Escalation 27
  0.9766,                                 !- Year Escalation 28
  0.9769,                                 !- Year Escalation 29
  0.9773;                                 !- Year Escalation 30

LifeCycleCost:UsePriceEscalation,
  U.S. Avg  Commercial-Distillate Oil,    !- Name
  FuelOil#1,                              !- Resource
  2011,                                   !- Escalation Start Year
  January,                                !- Escalation Start Month
  0.9714,                                 !- Year Escalation 1
  0.9730,                                 !- Year Escalation 2
  0.9942,                                 !- Year Escalation 3
  1.0164,                                 !- Year Escalation 4
  1.0541,                                 !- Year Escalation 5
  1.0928,                                 !- Year Escalation 6
  1.1267,                                 !- Year Escalation 7
  1.1580,                                 !- Year Escalation 8
  1.1792,                                 !- Year Escalation 9
  1.1967,                                 !- Year Escalation 10
  1.2200,                                 !- Year Escalation 11
  1.2333,                                 !- Year Escalation 12
  1.2566,                                 !- Year Escalation 13
  1.2709,                                 !- Year Escalation 14
  1.2826,                                 !- Year Escalation 15
  1.2985,                                 !- Year Escalation 16
  1.3102,                                 !- Year Escalation 17
  1.3250,                                 !- Year Escalation 18
  1.3261,                                 !- Year Escalation 19
  1.3282,                                 !- Year Escalation 20
  1.3324,                                 !- Year Escalation 21
  1.3356,                                 !- Year Escalation 22
  1.3431,                                 !- Year Escalation 23
  1.3510,                                 !- Year Escalation 24
  1.3568,                                 !- Year Escalation 25
  1.3606,                                 !- Year Escalation 26
  1.3637,                                 !- Year Escalation 27
  1.3674,                                 !- Year Escalation 28
  1.3706,                                 !- Year Escalation 29
  1.3743;                                 !- Year Escalation 30

LifeCycleCost:UsePriceEscalation,
  U.S. Avg  Commercial-Residual Oil,      !- Name
  FuelOil#2,                              !- Resource
  2011,                                   !- Escalation Start Year
  January,                                !- Escalation Start Month
  0.8469,                                 !- Year Escalation 1
  0.8257,                                 !- Year Escalation 2
  0.8681,                                 !- Year Escalation 3
  0.8988,                                 !- Year Escalation 4
  0.9289,                                 !- Year Escalation 5
  0.9604,                                 !- Year Escalation 6
  0.9897,                                 !- Year Escalation 7
  1.0075,                                 !- Year Escalation 8
  1.0314,                                 !- Year Escalation 9
  1.0554,                                 !- Year Escalation 10
  1.0861,                                 !- Year Escalation 11
  1.1278,                                 !- Year Escalation 12
  1.1497,                                 !- Year Escalation 13
  1.1620,                                 !- Year Escalation 14
  1.1743,                                 !- Year Escalation 15
  1.1852,                                 !- Year Escalation 16
  1.1948,                                 !- Year Escalation 17
  1.2037,                                 !- Year Escalation 18
  1.2071,                                 !- Year Escalation 19
  1.2119,                                 !- Year Escalation 20
  1.2139,                                 !- Year Escalation 21
  1.2194,                                 !- Year Escalation 22
  1.2276,                                 !- Year Escalation 23
  1.2365,                                 !- Year Escalation 24
  1.2420,                                 !- Year Escalation 25
  1.2461,                                 !- Year Escalation 26
  1.2509,                                 !- Year Escalation 27
  1.2550,                                 !- Year Escalation 28
  1.2591,                                 !- Year Escalation 29
  1.2638;                                 !- Year Escalation 30

LifeCycleCost:UsePriceEscalation,
  U.S. Avg  Commercial-Natural gas,       !- Name
  NaturalGas,                             !- Resource
  2011,                                   !- Escalation Start Year
  January,                                !- Escalation Start Month
  0.9823,                                 !- Year Escalation 1
  0.9557,                                 !- Year Escalation 2
  0.9279,                                 !- Year Escalation 3
  0.9257,                                 !- Year Escalation 4
  0.9346,                                 !- Year Escalation 5
  0.9412,                                 !- Year Escalation 6
  0.9512,                                 !- Year Escalation 7
  0.9645,                                 !- Year Escalation 8
  0.9856,                                 !- Year Escalation 9
  1.0067,                                 !- Year Escalation 10
  1.0222,                                 !- Year Escalation 11
  1.0410,                                 !- Year Escalation 12
  1.0610,                                 !- Year Escalation 13
  1.0787,                                 !- Year Escalation 14
  1.0942,                                 !- Year Escalation 15
  1.1098,                                 !- Year Escalation 16
  1.1220,                                 !- Year Escalation 17
  1.1308,                                 !- Year Escalation 18
  1.1386,                                 !- Year Escalation 19
  1.1486,                                 !- Year Escalation 20
  1.1619,                                 !- Year Escalation 21
  1.1763,                                 !- Year Escalation 22
  1.1918,                                 !- Year Escalation 23
  1.2118,                                 !- Year Escalation 24
  1.2284,                                 !- Year Escalation 25
  1.2439,                                 !- Year Escalation 26
  1.2605,                                 !- Year Escalation 27
  1.2772,                                 !- Year Escalation 28
  1.2938,                                 !- Year Escalation 29
  1.3115;                                 !- Year Escalation 30

LifeCycleCost:UsePriceEscalation,
  U.S. Avg  Commercial-Coal,              !- Name
  Coal,                                   !- Resource
  2011,                                   !- Escalation Start Year
  January,                                !- Escalation Start Month
  0.9970,                                 !- Year Escalation 1
  1.0089,                                 !- Year Escalation 2
  1.0089,                                 !- Year Escalation 3
  0.9941,                                 !- Year Escalation 4
  0.9941,                                 !- Year Escalation 5
  1.0000,                                 !- Year Escalation 6
  1.0030,                                 !- Year Escalation 7
  1.0059,                                 !- Year Escalation 8
  1.0089,                                 !- Year Escalation 9
  1.0119,                                 !- Year Escalation 10
  1.0148,                                 !- Year Escalation 11
  1.0178,                                 !- Year Escalation 12
  1.0208,                                 !- Year Escalation 13
  1.0267,                                 !- Year Escalation 14
  1.0297,                                 !- Year Escalation 15
  1.0356,                                 !- Year Escalation 16
  1.0415,                                 !- Year Escalation 17
  1.0534,                                 !- Year Escalation 18
  1.0564,                                 !- Year Escalation 19
  1.0593,                                 !- Year Escalation 20
  1.0653,                                 !- Year Escalation 21
  1.0712,                                 !- Year Escalation 22
  1.0742,                                 !- Year Escalation 23
  1.0801,                                 !- Year Escalation 24
  1.0831,                                 !- Year Escalation 25
  1.0831,                                 !- Year Escalation 26
  1.0861,                                 !- Year Escalation 27
  1.0890,                                 !- Year Escalation 28
  1.0920,                                 !- Year Escalation 29
  1.0950;                                 !- Year Escalation 30

Building,
  Building 1,                             !- Name
  0,                                      !- North Axis {deg}
  ,                                       !- Terrain
  ,                                       !- Loads Convergence Tolerance Value
  ,                                       !- Temperature Convergence Tolerance Value {deltaC}
  FullExteriorWithReflections,            !- Solar Distribution
  ,                                       !- Maximum Number of Warmup Days
  ;                                       !- Minimum Number of Warmup Days

Zone,
  Thermal Zone 1,                         !- Name
  -0,                                     !- Direction of Relative North {deg}
  75.0169584160808,                       !- X Origin {m}
  221.487057071062,                       !- Y Origin {m}
  8.84125,                                !- Z Origin {m}
  ,                                       !- Type
  ,                                       !- Multiplier
  ,                                       !- Ceiling Height {m}
  ,                                       !- Volume {m3}
  ,                                       !- Floor Area {m2}
  ,                                       !- Zone Inside Convection Algorithm
  ;                                       !- Zone Outside Convection Algorithm

BuildingSurface:Detailed,
  Surface 209,                            !- Name
  Floor,                                  !- Surface Type
  ASHRAE 90.1-2004 ExtWall Mass ClimateZone 6 Reversed, !- Construction Name
  Thermal Zone 1,                         !- Zone Name
  Surface,                                !- Outside Boundary Condition
  Surface 208,                            !- Outside Boundary Condition Object
  NoSun,                                  !- Sun Exposure
  NoWind,                                 !- Wind Exposure
  ,                                       !- View Factor to Ground
  ,                                       !- Number of Vertices
  -1.4210854715202e-14, -2.8421709430404e-13, 0, !- X,Y,Z Vertex 1 {m}
  8.27597776700739, -8.27597776700728, 0, !- X,Y,Z Vertex 2 {m}
  16.5519555340147, -16.5519555340143, 0, !- X,Y,Z Vertex 3 {m}
  24.8279333010221, -24.8279333010223, 0, !- X,Y,Z Vertex 4 {m}
  33.1039110680292, -33.1039110680293, 0, !- X,Y,Z Vertex 5 {m}
  41.3798888350372, -41.3798888350363, 0, !- X,Y,Z Vertex 6 {m}
  33.7744503271032, -48.9853273429703, 0, !- X,Y,Z Vertex 7 {m}
  26.1690118191692, -56.5907658509043, 0, !- X,Y,Z Vertex 8 {m}
  18.563573311236, -64.1962043588373, 0,  !- X,Y,Z Vertex 9 {m}
  10.9581348033024, -71.8016428667713, 0, !- X,Y,Z Vertex 10 {m}
  3.35269629536879, -79.4070813747043, 0, !- X,Y,Z Vertex 11 {m}
  -4.25274221256481, -87.0125198826383, 0, !- X,Y,Z Vertex 12 {m}
  -11.8581807204984, -94.6179583905723, 0, !- X,Y,Z Vertex 13 {m}
  -20.1341584875057, -86.3419806235643, 0, !- X,Y,Z Vertex 14 {m}
  -28.4101362545131, -78.0660028565573, 0, !- X,Y,Z Vertex 15 {m}
  -36.6861140215204, -69.7900250895503, 0, !- X,Y,Z Vertex 16 {m}
  -44.9620917885278, -61.5140473225423, 0, !- X,Y,Z Vertex 17 {m}
  -53.2380695555351, -53.2380695555353, 0, !- X,Y,Z Vertex 18 {m}
  -45.6326310476015, -45.6326310476013, 0, !- X,Y,Z Vertex 19 {m}
  -38.027192539668, -38.0271925396683, 0, !- X,Y,Z Vertex 20 {m}
  -30.4217540317344, -30.4217540317343, 0, !- X,Y,Z Vertex 21 {m}
  -22.8163155238008, -22.8163155238013, 0, !- X,Y,Z Vertex 22 {m}
  -15.2108770158672, -15.2108770158673, 0, !- X,Y,Z Vertex 23 {m}
  -7.60543850793361, -7.60543850793329, 0; !- X,Y,Z Vertex 24 {m}

BuildingSurface:Detailed,
  Surface 210,                            !- Name
  Wall,                                   !- Surface Type
  ASHRAE 90.1-2004 ExtWall Mass ClimateZone 6, !- Construction Name
  Thermal Zone 1,                         !- Zone Name
  Outdoors,                               !- Outside Boundary Condition
  ,                                       !- Outside Boundary Condition Object
  SunExposed,                             !- Sun Exposure
  WindExposed,                            !- Wind Exposure
  ,                                       !- View Factor to Ground
  ,                                       !- Number of Vertices
  8.27597776700739, -8.27597776700728, 0.8325, !- X,Y,Z Vertex 1 {m}
  8.27597776700739, -8.27597776700728, 0, !- X,Y,Z Vertex 2 {m}
  -1.4210854715202e-14, -2.8421709430404e-13, 0, !- X,Y,Z Vertex 3 {m}
  -1.4210854715202e-14, -2.8421709430404e-13, 0.8325; !- X,Y,Z Vertex 4 {m}

BuildingSurface:Detailed,
  Surface 211,                            !- Name
  Wall,                                   !- Surface Type
  ASHRAE 90.1-2004 ExtWall Mass ClimateZone 6, !- Construction Name
  Thermal Zone 1,                         !- Zone Name
  Outdoors,                               !- Outside Boundary Condition
  ,                                       !- Outside Boundary Condition Object
  SunExposed,                             !- Sun Exposure
  WindExposed,                            !- Wind Exposure
  ,                                       !- View Factor to Ground
  ,                                       !- Number of Vertices
  16.5519555340147, -16.5519555340143, 0.8325, !- X,Y,Z Vertex 1 {m}
  16.5519555340147, -16.5519555340143, 0, !- X,Y,Z Vertex 2 {m}
  8.27597776700739, -8.27597776700728, 0, !- X,Y,Z Vertex 3 {m}
  8.27597776700739, -8.27597776700728, 0.8325; !- X,Y,Z Vertex 4 {m}

BuildingSurface:Detailed,
  Surface 212,                            !- Name
  Wall,                                   !- Surface Type
  ASHRAE 90.1-2004 ExtWall Mass ClimateZone 6, !- Construction Name
  Thermal Zone 1,                         !- Zone Name
  Outdoors,                               !- Outside Boundary Condition
  ,                                       !- Outside Boundary Condition Object
  SunExposed,                             !- Sun Exposure
  WindExposed,                            !- Wind Exposure
  ,                                       !- View Factor to Ground
  ,                                       !- Number of Vertices
  24.8279333010221, -24.8279333010223, 0.8325, !- X,Y,Z Vertex 1 {m}
  24.8279333010221, -24.8279333010223, 0, !- X,Y,Z Vertex 2 {m}
  16.5519555340147, -16.5519555340143, 0, !- X,Y,Z Vertex 3 {m}
  16.5519555340147, -16.5519555340143, 0.8325; !- X,Y,Z Vertex 4 {m}

BuildingSurface:Detailed,
  Surface 213,                            !- Name
  Wall,                                   !- Surface Type
  ASHRAE 90.1-2004 ExtWall Mass ClimateZone 6, !- Construction Name
  Thermal Zone 1,                         !- Zone Name
  Outdoors,                               !- Outside Boundary Condition
  ,                                       !- Outside Boundary Condition Object
  SunExposed,                             !- Sun Exposure
  WindExposed,                            !- Wind Exposure
  ,                                       !- View Factor to Ground
  ,                                       !- Number of Vertices
  33.1039110680292, -33.1039110680293, 0.8325, !- X,Y,Z Vertex 1 {m}
  33.1039110680292, -33.1039110680293, 0, !- X,Y,Z Vertex 2 {m}
  24.8279333010221, -24.8279333010223, 0, !- X,Y,Z Vertex 3 {m}
  24.8279333010221, -24.8279333010223, 0.8325; !- X,Y,Z Vertex 4 {m}

BuildingSurface:Detailed,
  Surface 214,                            !- Name
  Wall,                                   !- Surface Type
  ASHRAE 90.1-2004 ExtWall Mass ClimateZone 6, !- Construction Name
  Thermal Zone 1,                         !- Zone Name
  Outdoors,                               !- Outside Boundary Condition
  ,                                       !- Outside Boundary Condition Object
  SunExposed,                             !- Sun Exposure
  WindExposed,                            !- Wind Exposure
  ,                                       !- View Factor to Ground
  ,                                       !- Number of Vertices
  41.3798888350372, -41.3798888350363, 0.8325, !- X,Y,Z Vertex 1 {m}
  41.3798888350372, -41.3798888350363, 0, !- X,Y,Z Vertex 2 {m}
  33.1039110680292, -33.1039110680293, 0, !- X,Y,Z Vertex 3 {m}
  33.1039110680292, -33.1039110680293, 0.8325; !- X,Y,Z Vertex 4 {m}

BuildingSurface:Detailed,
  Surface 215,                            !- Name
  Wall,                                   !- Surface Type
  ASHRAE 90.1-2004 ExtWall Mass ClimateZone 6, !- Construction Name
  Thermal Zone 1,                         !- Zone Name
  Outdoors,                               !- Outside Boundary Condition
  ,                                       !- Outside Boundary Condition Object
  SunExposed,                             !- Sun Exposure
  WindExposed,                            !- Wind Exposure
  ,                                       !- View Factor to Ground
  ,                                       !- Number of Vertices
  33.7744503271032, -48.9853273429703, 0.8325, !- X,Y,Z Vertex 1 {m}
  33.7744503271032, -48.9853273429703, 0, !- X,Y,Z Vertex 2 {m}
  41.3798888350372, -41.3798888350363, 0, !- X,Y,Z Vertex 3 {m}
  41.3798888350372, -41.3798888350363, 0.8325; !- X,Y,Z Vertex 4 {m}

BuildingSurface:Detailed,
  Surface 216,                            !- Name
  Wall,                                   !- Surface Type
  ASHRAE 90.1-2004 ExtWall Mass ClimateZone 6, !- Construction Name
  Thermal Zone 1,                         !- Zone Name
  Outdoors,                               !- Outside Boundary Condition
  ,                                       !- Outside Boundary Condition Object
  SunExposed,                             !- Sun Exposure
  WindExposed,                            !- Wind Exposure
  ,                                       !- View Factor to Ground
  ,                                       !- Number of Vertices
  26.1690118191692, -56.5907658509043, 0.8325, !- X,Y,Z Vertex 1 {m}
  26.1690118191692, -56.5907658509043, 0, !- X,Y,Z Vertex 2 {m}
  33.7744503271032, -48.9853273429703, 0, !- X,Y,Z Vertex 3 {m}
  33.7744503271032, -48.9853273429703, 0.8325; !- X,Y,Z Vertex 4 {m}

BuildingSurface:Detailed,
  Surface 217,                            !- Name
  Wall,                                   !- Surface Type
  ASHRAE 90.1-2004 ExtWall Mass ClimateZone 6, !- Construction Name
  Thermal Zone 1,                         !- Zone Name
  Outdoors,                               !- Outside Boundary Condition
  ,                                       !- Outside Boundary Condition Object
  SunExposed,                             !- Sun Exposure
  WindExposed,                            !- Wind Exposure
  ,                                       !- View Factor to Ground
  ,                                       !- Number of Vertices
  18.563573311236, -64.1962043588373, 0.8325, !- X,Y,Z Vertex 1 {m}
  18.563573311236, -64.1962043588373, 0,  !- X,Y,Z Vertex 2 {m}
  26.1690118191692, -56.5907658509043, 0, !- X,Y,Z Vertex 3 {m}
  26.1690118191692, -56.5907658509043, 0.8325; !- X,Y,Z Vertex 4 {m}

BuildingSurface:Detailed,
  Surface 218,                            !- Name
  Wall,                                   !- Surface Type
  ASHRAE 90.1-2004 ExtWall Mass ClimateZone 6, !- Construction Name
  Thermal Zone 1,                         !- Zone Name
  Outdoors,                               !- Outside Boundary Condition
  ,                                       !- Outside Boundary Condition Object
  SunExposed,                             !- Sun Exposure
  WindExposed,                            !- Wind Exposure
  ,                                       !- View Factor to Ground
  ,                                       !- Number of Vertices
  10.9581348033024, -71.8016428667713, 0.8325, !- X,Y,Z Vertex 1 {m}
  10.9581348033024, -71.8016428667713, 0, !- X,Y,Z Vertex 2 {m}
  18.563573311236, -64.1962043588373, 0,  !- X,Y,Z Vertex 3 {m}
  18.563573311236, -64.1962043588373, 0.8325; !- X,Y,Z Vertex 4 {m}

BuildingSurface:Detailed,
  Surface 219,                            !- Name
  Wall,                                   !- Surface Type
  ASHRAE 90.1-2004 ExtWall Mass ClimateZone 6, !- Construction Name
  Thermal Zone 1,                         !- Zone Name
  Outdoors,                               !- Outside Boundary Condition
  ,                                       !- Outside Boundary Condition Object
  SunExposed,                             !- Sun Exposure
  WindExposed,                            !- Wind Exposure
  ,                                       !- View Factor to Ground
  ,                                       !- Number of Vertices
  3.35269629536879, -79.4070813747043, 0.8325, !- X,Y,Z Vertex 1 {m}
  3.35269629536879, -79.4070813747043, 0, !- X,Y,Z Vertex 2 {m}
  10.9581348033024, -71.8016428667713, 0, !- X,Y,Z Vertex 3 {m}
  10.9581348033024, -71.8016428667713, 0.8325; !- X,Y,Z Vertex 4 {m}

BuildingSurface:Detailed,
  Surface 220,                            !- Name
  Wall,                                   !- Surface Type
  ASHRAE 90.1-2004 ExtWall Mass ClimateZone 6, !- Construction Name
  Thermal Zone 1,                         !- Zone Name
  Outdoors,                               !- Outside Boundary Condition
  ,                                       !- Outside Boundary Condition Object
  SunExposed,                             !- Sun Exposure
  WindExposed,                            !- Wind Exposure
  ,                                       !- View Factor to Ground
  ,                                       !- Number of Vertices
  -4.25274221256481, -87.0125198826383, 0.8325, !- X,Y,Z Vertex 1 {m}
  -4.25274221256481, -87.0125198826383, 0, !- X,Y,Z Vertex 2 {m}
  3.35269629536879, -79.4070813747043, 0, !- X,Y,Z Vertex 3 {m}
  3.35269629536879, -79.4070813747043, 0.8325; !- X,Y,Z Vertex 4 {m}

BuildingSurface:Detailed,
  Surface 221,                            !- Name
  Wall,                                   !- Surface Type
  ASHRAE 90.1-2004 ExtWall Mass ClimateZone 6, !- Construction Name
  Thermal Zone 1,                         !- Zone Name
  Outdoors,                               !- Outside Boundary Condition
  ,                                       !- Outside Boundary Condition Object
  SunExposed,                             !- Sun Exposure
  WindExposed,                            !- Wind Exposure
  ,                                       !- View Factor to Ground
  ,                                       !- Number of Vertices
  -11.8581807204984, -94.6179583905723, 0.8325, !- X,Y,Z Vertex 1 {m}
  -11.8581807204984, -94.6179583905723, 0, !- X,Y,Z Vertex 2 {m}
  -4.25274221256481, -87.0125198826383, 0, !- X,Y,Z Vertex 3 {m}
  -4.25274221256481, -87.0125198826383, 0.8325; !- X,Y,Z Vertex 4 {m}

BuildingSurface:Detailed,
  Surface 222,                            !- Name
  Wall,                                   !- Surface Type
  ASHRAE 90.1-2004 ExtWall Mass ClimateZone 6, !- Construction Name
  Thermal Zone 1,                         !- Zone Name
  Outdoors,                               !- Outside Boundary Condition
  ,                                       !- Outside Boundary Condition Object
  SunExposed,                             !- Sun Exposure
  WindExposed,                            !- Wind Exposure
  ,                                       !- View Factor to Ground
  ,                                       !- Number of Vertices
  -20.1341584875057, -86.3419806235643, 0.8325, !- X,Y,Z Vertex 1 {m}
  -20.1341584875057, -86.3419806235643, 0, !- X,Y,Z Vertex 2 {m}
  -11.8581807204984, -94.6179583905723, 0, !- X,Y,Z Vertex 3 {m}
  -11.8581807204984, -94.6179583905723, 0.8325; !- X,Y,Z Vertex 4 {m}

BuildingSurface:Detailed,
  Surface 223,                            !- Name
  Wall,                                   !- Surface Type
  ASHRAE 90.1-2004 ExtWall Mass ClimateZone 6, !- Construction Name
  Thermal Zone 1,                         !- Zone Name
  Outdoors,                               !- Outside Boundary Condition
  ,                                       !- Outside Boundary Condition Object
  SunExposed,                             !- Sun Exposure
  WindExposed,                            !- Wind Exposure
  ,                                       !- View Factor to Ground
  ,                                       !- Number of Vertices
  -28.4101362545131, -78.0660028565573, 0.8325, !- X,Y,Z Vertex 1 {m}
  -28.4101362545131, -78.0660028565573, 0, !- X,Y,Z Vertex 2 {m}
  -20.1341584875057, -86.3419806235643, 0, !- X,Y,Z Vertex 3 {m}
  -20.1341584875057, -86.3419806235643, 0.8325; !- X,Y,Z Vertex 4 {m}

BuildingSurface:Detailed,
  Surface 224,                            !- Name
  Wall,                                   !- Surface Type
  ASHRAE 90.1-2004 ExtWall Mass ClimateZone 6, !- Construction Name
  Thermal Zone 1,                         !- Zone Name
  Outdoors,                               !- Outside Boundary Condition
  ,                                       !- Outside Boundary Condition Object
  SunExposed,                             !- Sun Exposure
  WindExposed,                            !- Wind Exposure
  ,                                       !- View Factor to Ground
  ,                                       !- Number of Vertices
  -36.6861140215204, -69.7900250895503, 0.8325, !- X,Y,Z Vertex 1 {m}
  -36.6861140215204, -69.7900250895503, 0, !- X,Y,Z Vertex 2 {m}
  -28.4101362545131, -78.0660028565573, 0, !- X,Y,Z Vertex 3 {m}
  -28.4101362545131, -78.0660028565573, 0.8325; !- X,Y,Z Vertex 4 {m}

BuildingSurface:Detailed,
  Surface 225,                            !- Name
  Wall,                                   !- Surface Type
  ASHRAE 90.1-2004 ExtWall Mass ClimateZone 6, !- Construction Name
  Thermal Zone 1,                         !- Zone Name
  Outdoors,                               !- Outside Boundary Condition
  ,                                       !- Outside Boundary Condition Object
  SunExposed,                             !- Sun Exposure
  WindExposed,                            !- Wind Exposure
  ,                                       !- View Factor to Ground
  ,                                       !- Number of Vertices
  -44.9620917885278, -61.5140473225423, 0.8325, !- X,Y,Z Vertex 1 {m}