
OS:Version,
  {8f88ba69-6025-4b65-8318-2b67b4ee57dd}, !- Handle
  1.7.0;                                  !- Version Identifier

OS:BuildingStory,
  {0833f95d-cf06-4df8-8e89-362e4e7016b1}, !- Handle
  Rectangle:Story 1,                      !- Name
  0,                                      !- Nominal Z Coordinate {m}
  1.24875,                                !- Nominal Floor to Floor Height {m}
  ,                                       !- Default Construction Set Name
  ,                                       !- Default Schedule Set Name
  {5fe56a2e-57f0-4158-8e39-0fec2c6071c0}; !- Group Rendering Name

OS:Space,
  {ec357b79-86a7-4f5a-bc0e-f82302d96edb}, !- Handle
  0 Core Space,                           !- Name
  ,                                       !- Space Type Name
  ,                                       !- Default Construction Set Name
  ,                                       !- Default Schedule Set Name
  -0,                                     !- Direction of Relative North {deg}
  5.92555482634326,                       !- X Origin {m}
  47.30544366138,                         !- Y Origin {m}
  0,                                      !- Z Origin {m}
  {0833f95d-cf06-4df8-8e89-362e4e7016b1}, !- Building Story Name
  {cd982dca-12d6-43e9-8fcd-ebc0a92355d3}; !- Thermal Zone Name

OS:Surface,
  {b875890e-904e-4faf-ad0f-2a99759b5e0e}, !- Handle
  Surface 1,                              !- Name
  Floor,                                  !- Surface Type
  ,                                       !- Construction Name
  {ec357b79-86a7-4f5a-bc0e-f82302d96edb}, !- Space Name
  Ground,                                 !- Outside Boundary Condition
  ,                                       !- Outside Boundary Condition Object
  NoSun,                                  !- Sun Exposure
  NoWind,                                 !- Wind Exposure
  ,                                       !- View Factor to Ground
  ,                                       !- Number of Vertices
  -2.66453525910038e-15, -2.8421709430404e-14, 0, !- X,Y,Z Vertex 1 {m}
  41.3798888350367, -41.3798888350368, 0, !- X,Y,Z Vertex 2 {m}
  -11.8511096526865, -94.61088732276, 0,  !- X,Y,Z Vertex 3 {m}
  -53.2309984877233, -53.2309984877233, 0; !- X,Y,Z Vertex 4 {m}

OS:Surface,
  {8e4bcba0-9873-46e6-956d-72dc52e05fb3}, !- Handle
  Surface 2,                              !- Name
  Wall,                                   !- Surface Type
  ,                                       !- Construction Name
  {ec357b79-86a7-4f5a-bc0e-f82302d96edb}, !- Space Name
  Outdoors,                               !- Outside Boundary Condition
  ,                                       !- Outside Boundary Condition Object
  SunExposed,                             !- Sun Exposure
  WindExposed,                            !- Wind Exposure
  ,                                       !- View Factor to Ground
  ,                                       !- Number of Vertices
  8.27597776700734, -8.27597776700733, 1.24875, !- X,Y,Z Vertex 1 {m}
  8.27597776700734, -8.27597776700733, 0, !- X,Y,Z Vertex 2 {m}
  -2.07451100960011e-15, -2.78316851809037e-14, 0, !- X,Y,Z Vertex 3 {m}
  -2.07451100960011e-15, -2.78316851809037e-14, 1.24875; !- X,Y,Z Vertex 4 {m}

OS:Surface,
  {6cde2837-0fd2-44b2-b67e-ccc5423a0c97}, !- Handle
  Surface 3,                              !- Name
  Wall,                                   !- Surface Type
  ,                                       !- Construction Name
  {ec357b79-86a7-4f5a-bc0e-f82302d96edb}, !- Space Name
  Outdoors,                               !- Outside Boundary Condition
  ,                                       !- Outside Boundary Condition Object
  SunExposed,                             !- Sun Exposure
  WindExposed,                            !- Wind Exposure
  ,                                       !- View Factor to Ground
  ,                                       !- Number of Vertices
  16.5519555340147, -16.5519555340147, 1.24875, !- X,Y,Z Vertex 1 {m}
  16.5519555340147, -16.5519555340147, 0, !- X,Y,Z Vertex 2 {m}
  8.27597776700734, -8.27597776700733, 0, !- X,Y,Z Vertex 3 {m}
  8.27597776700734, -8.27597776700733, 1.24875; !- X,Y,Z Vertex 4 {m}

OS:Surface,
  {528b8be9-3d93-4c03-b1e6-777142458453}, !- Handle
  Surface 4,                              !- Name
  Wall,                                   !- Surface Type
  ,                                       !- Construction Name
  {ec357b79-86a7-4f5a-bc0e-f82302d96edb}, !- Space Name
  Outdoors,                               !- Outside Boundary Condition
  ,                                       !- Outside Boundary Condition Object
  SunExposed,                             !- Sun Exposure
  WindExposed,                            !- Wind Exposure
  ,                                       !- View Factor to Ground
  ,                                       !- Number of Vertices
  24.827933301022, -24.827933301022, 1.24875, !- X,Y,Z Vertex 1 {m}
  24.827933301022, -24.827933301022, 0,   !- X,Y,Z Vertex 2 {m}
  16.5519555340147, -16.5519555340147, 0, !- X,Y,Z Vertex 3 {m}
  16.5519555340147, -16.5519555340147, 1.24875; !- X,Y,Z Vertex 4 {m}

OS:Surface,
  {94f14b64-1940-40e1-a2b2-7a593afd4897}, !- Handle
  Surface 5,                              !- Name
  Wall,                                   !- Surface Type
  ,                                       !- Construction Name
  {ec357b79-86a7-4f5a-bc0e-f82302d96edb}, !- Space Name
  Outdoors,                               !- Outside Boundary Condition
  ,                                       !- Outside Boundary Condition Object
  SunExposed,                             !- Sun Exposure
  WindExposed,                            !- Wind Exposure
  ,                                       !- View Factor to Ground
  ,                                       !- Number of Vertices
  33.1039110680294, -33.1039110680294, 1.24875, !- X,Y,Z Vertex 1 {m}
  33.1039110680294, -33.1039110680294, 0, !- X,Y,Z Vertex 2 {m}
  24.827933301022, -24.827933301022, 0,   !- X,Y,Z Vertex 3 {m}
  24.827933301022, -24.827933301022, 1.24875; !- X,Y,Z Vertex 4 {m}

OS:Surface,
  {42f575e9-2357-424b-ba33-e42f1abdb28b}, !- Handle
  Surface 6,                              !- Name
  Wall,                                   !- Surface Type
  ,                                       !- Construction Name
  {ec357b79-86a7-4f5a-bc0e-f82302d96edb}, !- Space Name
  Outdoors,                               !- Outside Boundary Condition
  ,                                       !- Outside Boundary Condition Object
  SunExposed,                             !- Sun Exposure
  WindExposed,                            !- Wind Exposure
  ,                                       !- View Factor to Ground
  ,                                       !- Number of Vertices
  41.3798888350367, -41.3798888350368, 1.24875, !- X,Y,Z Vertex 1 {m}
  41.3798888350367, -41.3798888350368, 0, !- X,Y,Z Vertex 2 {m}
  33.1039110680294, -33.1039110680294, 0, !- X,Y,Z Vertex 3 {m}
  33.1039110680294, -33.1039110680294, 1.24875; !- X,Y,Z Vertex 4 {m}

OS:Surface,
  {fe1bef0c-9a8e-460f-a790-784c3fdbdd04}, !- Handle
  Surface 7,                              !- Name
  Wall,                                   !- Surface Type
  ,                                       !- Construction Name
  {ec357b79-86a7-4f5a-bc0e-f82302d96edb}, !- Space Name
  Outdoors,                               !- Outside Boundary Condition
  ,                                       !- Outside Boundary Condition Object
  SunExposed,                             !- Sun Exposure
  WindExposed,                            !- Wind Exposure
  ,                                       !- View Factor to Ground
  ,                                       !- Number of Vertices
  33.7754604796477, -48.9843171904258, 1.24875, !- X,Y,Z Vertex 1 {m}
  33.7754604796477, -48.9843171904258, 0, !- X,Y,Z Vertex 2 {m}
  41.3798888350367, -41.3798888350368, 0, !- X,Y,Z Vertex 3 {m}
  41.3798888350367, -41.3798888350368, 1.24875; !- X,Y,Z Vertex 4 {m}

OS:Surface,
  {80cd87df-510b-4245-834c-5bc5db520c27}, !- Handle
  Surface 8,                              !- Name
  Wall,                                   !- Surface Type
  ,                                       !- Construction Name
  {ec357b79-86a7-4f5a-bc0e-f82302d96edb}, !- Space Name
  Outdoors,                               !- Outside Boundary Condition
  ,                                       !- Outside Boundary Condition Object
  SunExposed,                             !- Sun Exposure
  WindExposed,                            !- Wind Exposure
  ,                                       !- View Factor to Ground
  ,                                       !- Number of Vertices
  26.1710321242586, -56.5887455458149, 1.24875, !- X,Y,Z Vertex 1 {m}
  26.1710321242586, -56.5887455458149, 0, !- X,Y,Z Vertex 2 {m}
  33.7754604796477, -48.9843171904258, 0, !- X,Y,Z Vertex 3 {m}
  33.7754604796477, -48.9843171904258, 1.24875; !- X,Y,Z Vertex 4 {m}

OS:Surface,
  {dbaa8f34-e080-4cee-a139-9b1fd787d6e7}, !- Handle
  Surface 9,                              !- Name
  Wall,                                   !- Surface Type
  ,                                       !- Construction Name
  {ec357b79-86a7-4f5a-bc0e-f82302d96edb}, !- Space Name
  Outdoors,                               !- Outside Boundary Condition
  ,                                       !- Outside Boundary Condition Object
  SunExposed,                             !- Sun Exposure
  WindExposed,                            !- Wind Exposure
  ,                                       !- View Factor to Ground
  ,                                       !- Number of Vertices
  18.5666037688696, -64.1931739012039, 1.24875, !- X,Y,Z Vertex 1 {m}
  18.5666037688696, -64.1931739012039, 0, !- X,Y,Z Vertex 2 {m}
  26.1710321242586, -56.5887455458149, 0, !- X,Y,Z Vertex 3 {m}
  26.1710321242586, -56.5887455458149, 1.24875; !- X,Y,Z Vertex 4 {m}

OS:Surface,
  {bb3c8830-3cef-4b2b-bc8d-fbd41f09ac39}, !- Handle
  Surface 10,                             !- Name
  Wall,                                   !- Surface Type
  ,                                       !- Construction Name
  {ec357b79-86a7-4f5a-bc0e-f82302d96edb}, !- Space Name
  Outdoors,                               !- Outside Boundary Condition
  ,                                       !- Outside Boundary Condition Object
  SunExposed,                             !- Sun Exposure
  WindExposed,                            !- Wind Exposure
  ,                                       !- View Factor to Ground
  ,                                       !- Number of Vertices
  10.9621754134806, -71.7976022565929, 1.24875, !- X,Y,Z Vertex 1 {m}
  10.9621754134806, -71.7976022565929, 0, !- X,Y,Z Vertex 2 {m}
  18.5666037688696, -64.1931739012039, 0, !- X,Y,Z Vertex 3 {m}
  18.5666037688696, -64.1931739012039, 1.24875; !- X,Y,Z Vertex 4 {m}

OS:Surface,
  {bf4969b1-a4e1-4c3e-ab99-accacdf943a0}, !- Handle
  Surface 11,                             !- Name
  Wall,                                   !- Surface Type
  ,                                       !- Construction Name
  {ec357b79-86a7-4f5a-bc0e-f82302d96edb}, !- Space Name
  Outdoors,                               !- Outside Boundary Condition
  ,                                       !- Outside Boundary Condition Object
  SunExposed,                             !- Sun Exposure
  WindExposed,                            !- Wind Exposure
  ,                                       !- View Factor to Ground
  ,                                       !- Number of Vertices
  3.35774705809156, -79.402030611982, 1.24875, !- X,Y,Z Vertex 1 {m}
  3.35774705809156, -79.402030611982, 0,  !- X,Y,Z Vertex 2 {m}
  10.9621754134806, -71.7976022565929, 0, !- X,Y,Z Vertex 3 {m}
  10.9621754134806, -71.7976022565929, 1.24875; !- X,Y,Z Vertex 4 {m}

OS:Surface,
  {f171dec6-2423-4ac0-87ca-676a2e958c58}, !- Handle
  Surface 12,                             !- Name
  Wall,                                   !- Surface Type
  ,                                       !- Construction Name
  {ec357b79-86a7-4f5a-bc0e-f82302d96edb}, !- Space Name
  Outdoors,                               !- Outside Boundary Condition
  ,                                       !- Outside Boundary Condition Object
  SunExposed,                             !- Sun Exposure
  WindExposed,                            !- Wind Exposure
  ,                                       !- View Factor to Ground
  ,                                       !- Number of Vertices
  -4.24668129729747, -87.006458967371, 1.24875, !- X,Y,Z Vertex 1 {m}
  -4.24668129729747, -87.006458967371, 0, !- X,Y,Z Vertex 2 {m}
  3.35774705809157, -79.402030611982, 0,  !- X,Y,Z Vertex 3 {m}
  3.35774705809157, -79.402030611982, 1.24875; !- X,Y,Z Vertex 4 {m}

OS:Surface,
  {e6a61f5f-b212-4e7c-b17a-f500c78b5a34}, !- Handle
  Surface 13,                             !- Name
  Wall,                                   !- Surface Type
  ,                                       !- Construction Name
  {ec357b79-86a7-4f5a-bc0e-f82302d96edb}, !- Space Name
  Outdoors,                               !- Outside Boundary Condition
  ,                                       !- Outside Boundary Condition Object
  SunExposed,                             !- Sun Exposure
  WindExposed,                            !- Wind Exposure
  ,                                       !- View Factor to Ground
  ,                                       !- Number of Vertices
  -11.8511096526865, -94.61088732276, 1.24875, !- X,Y,Z Vertex 1 {m}
  -11.8511096526865, -94.61088732276, 0,  !- X,Y,Z Vertex 2 {m}
  -4.24668129729748, -87.006458967371, 0, !- X,Y,Z Vertex 3 {m}
  -4.24668129729748, -87.006458967371, 1.24875; !- X,Y,Z Vertex 4 {m}

OS:Surface,
  {2d22681c-6228-4df1-a7f7-510d17355083}, !- Handle
  Surface 14,                             !- Name
  Wall,                                   !- Surface Type
  ,                                       !- Construction Name
  {ec357b79-86a7-4f5a-bc0e-f82302d96edb}, !- Space Name
  Outdoors,                               !- Outside Boundary Condition
  ,                                       !- Outside Boundary Condition Object
  SunExposed,                             !- Sun Exposure
  WindExposed,                            !- Wind Exposure
  ,                                       !- View Factor to Ground
  ,                                       !- Number of Vertices
  -20.1270874196939, -86.3349095557527, 1.24875, !- X,Y,Z Vertex 1 {m}
  -20.1270874196939, -86.3349095557527, 0, !- X,Y,Z Vertex 2 {m}
  -11.8511096526865, -94.61088732276, 0,  !- X,Y,Z Vertex 3 {m}
  -11.8511096526865, -94.61088732276, 1.24875; !- X,Y,Z Vertex 4 {m}

OS:Surface,
  {88768383-03c4-44b6-80de-934d6d3430a0}, !- Handle
  Surface 15,                             !- Name
  Wall,                                   !- Surface Type
  ,                                       !- Construction Name
  {ec357b79-86a7-4f5a-bc0e-f82302d96edb}, !- Space Name
  Outdoors,                               !- Outside Boundary Condition
  ,                                       !- Outside Boundary Condition Object
  SunExposed,                             !- Sun Exposure
  WindExposed,                            !- Wind Exposure
  ,                                       !- View Factor to Ground
  ,                                       !- Number of Vertices
  -28.4030651867013, -78.0589317887453, 1.24875, !- X,Y,Z Vertex 1 {m}
  -28.4030651867013, -78.0589317887453, 0, !- X,Y,Z Vertex 2 {m}
  -20.1270874196939, -86.3349095557527, 0, !- X,Y,Z Vertex 3 {m}
  -20.1270874196939, -86.3349095557527, 1.24875; !- X,Y,Z Vertex 4 {m}

OS:Surface,
  {2e4d28dc-8bdc-41f8-a7a1-4f1f6768b9fe}, !- Handle
  Surface 16,                             !- Name
  Wall,                                   !- Surface Type
  ,                                       !- Construction Name
  {ec357b79-86a7-4f5a-bc0e-f82302d96edb}, !- Space Name
  Outdoors,                               !- Outside Boundary Condition
  ,                                       !- Outside Boundary Condition Object
  SunExposed,                             !- Sun Exposure
  WindExposed,                            !- Wind Exposure
  ,                                       !- View Factor to Ground
  ,                                       !- Number of Vertices
  -36.6790429537086, -69.782954021738, 1.24875, !- X,Y,Z Vertex 1 {m}
  -36.6790429537086, -69.782954021738, 0, !- X,Y,Z Vertex 2 {m}
  -28.4030651867013, -78.0589317887453, 0, !- X,Y,Z Vertex 3 {m}
  -28.4030651867013, -78.0589317887453, 1.24875; !- X,Y,Z Vertex 4 {m}

OS:Surface,
  {dc560a83-fb7f-4bfe-9a11-ed8c539cb00a}, !- Handle
  Surface 17,                             !- Name
  Wall,                                   !- Surface Type
  ,                                       !- Construction Name
  {ec357b79-86a7-4f5a-bc0e-f82302d96edb}, !- Space Name
  Outdoors,                               !- Outside Boundary Condition
  ,                                       !- Outside Boundary Condition Object
  SunExposed,                             !- Sun Exposure
  WindExposed,                            !- Wind Exposure
  ,                                       !- View Factor to Ground
  ,                                       !- Number of Vertices
  -44.955020720716, -61.5069762547306, 1.24875, !- X,Y,Z Vertex 1 {m}
  -44.955020720716, -61.5069762547306, 0, !- X,Y,Z Vertex 2 {m}
  -36.6790429537086, -69.782954021738, 0, !- X,Y,Z Vertex 3 {m}
  -36.6790429537086, -69.782954021738, 1.24875; !- X,Y,Z Vertex 4 {m}

OS:Surface,
  {8498f357-a19c-493c-9a00-4685a0468179}, !- Handle
  Surface 18,                             !- Name
  Wall,                                   !- Surface Type
  ,                                       !- Construction Name
  {ec357b79-86a7-4f5a-bc0e-f82302d96edb}, !- Space Name
  Outdoors,                               !- Outside Boundary Condition
  ,                                       !- Outside Boundary Condition Object
  SunExposed,                             !- Sun Exposure
  WindExposed,                            !- Wind Exposure
  ,                                       !- View Factor to Ground
  ,                                       !- Number of Vertices
  -53.2309984877233, -53.2309984877233, 1.24875, !- X,Y,Z Vertex 1 {m}
  -53.2309984877233, -53.2309984877233, 0, !- X,Y,Z Vertex 2 {m}
  -44.955020720716, -61.5069762547306, 0, !- X,Y,Z Vertex 3 {m}
  -44.955020720716, -61.5069762547306, 1.24875; !- X,Y,Z Vertex 4 {m}

OS:Surface,
  {1522fc27-93cc-4025-8054-de47e9e6ce9d}, !- Handle
  Surface 19,                             !- Name
  Wall,                                   !- Surface Type
  ,                                       !- Construction Name
  {ec357b79-86a7-4f5a-bc0e-f82302d96edb}, !- Space Name
  Outdoors,                               !- Outside Boundary Condition
  ,                                       !- Outside Boundary Condition Object
  SunExposed,                             !- Sun Exposure
  WindExposed,                            !- Wind Exposure
  ,                                       !- View Factor to Ground
  ,                                       !- Number of Vertices
  -45.6265701323343, -45.6265701323343, 1.24875, !- X,Y,Z Vertex 1 {m}
  -45.6265701323343, -45.6265701323343, 0, !- X,Y,Z Vertex 2 {m}
  -53.2309984877233, -53.2309984877233, 0, !- X,Y,Z Vertex 3 {m}
  -53.2309984877233, -53.2309984877233, 1.24875; !- X,Y,Z Vertex 4 {m}

OS:Surface,
  {63386108-e255-41a6-965d-79ff1ee033bd}, !- Handle
  Surface 20,                             !- Name
  Wall,                                   !- Surface Type
  ,                                       !- Construction Name
  {ec357b79-86a7-4f5a-bc0e-f82302d96edb}, !- Space Name
  Outdoors,                               !- Outside Boundary Condition
  ,                                       !- Outside Boundary Condition Object
  SunExposed,                             !- Sun Exposure
  WindExposed,                            !- Wind Exposure
  ,                                       !- View Factor to Ground
  ,                                       !- Number of Vertices
  -38.0221417769452, -38.0221417769452, 1.24875, !- X,Y,Z Vertex 1 {m}
  -38.0221417769452, -38.0221417769452, 0, !- X,Y,Z Vertex 2 {m}
  -45.6265701323343, -45.6265701323343, 0, !- X,Y,Z Vertex 3 {m}
  -45.6265701323343, -45.6265701323343, 1.24875; !- X,Y,Z Vertex 4 {m}

OS:Surface,
  {b236dfe2-f63a-4690-944f-45af5ba87f56}, !- Handle
  Surface 21,                             !- Name
  Wall,                                   !- Surface Type
  ,                                       !- Construction Name
  {ec357b79-86a7-4f5a-bc0e-f82302d96edb}, !- Space Name
  Outdoors,                               !- Outside Boundary Condition
  ,                                       !- Outside Boundary Condition Object
  SunExposed,                             !- Sun Exposure
  WindExposed,                            !- Wind Exposure
  ,                                       !- View Factor to Ground
  ,                                       !- Number of Vertices
  -30.4177134215562, -30.4177134215561, 1.24875, !- X,Y,Z Vertex 1 {m}
  -30.4177134215562, -30.4177134215561, 0, !- X,Y,Z Vertex 2 {m}
  -38.0221417769452, -38.0221417769452, 0, !- X,Y,Z Vertex 3 {m}
  -38.0221417769452, -38.0221417769452, 1.24875; !- X,Y,Z Vertex 4 {m}

OS:Surface,
  {45532406-dfa3-4c2a-bc89-488271a95fe7}, !- Handle
  Surface 22,                             !- Name
  Wall,                                   !- Surface Type
  ,                                       !- Construction Name
  {ec357b79-86a7-4f5a-bc0e-f82302d96edb}, !- Space Name
  Outdoors,                               !- Outside Boundary Condition
  ,                                       !- Outside Boundary Condition Object
  SunExposed,                             !- Sun Exposure
  WindExposed,                            !- Wind Exposure
  ,                                       !- View Factor to Ground
  ,                                       !- Number of Vertices
  -22.8132850661672, -22.8132850661671, 1.24875, !- X,Y,Z Vertex 1 {m}
  -22.8132850661672, -22.8132850661671, 0, !- X,Y,Z Vertex 2 {m}
  -30.4177134215562, -30.4177134215561, 0, !- X,Y,Z Vertex 3 {m}
  -30.4177134215562, -30.4177134215561, 1.24875; !- X,Y,Z Vertex 4 {m}

OS:Surface,
  {76333d0a-39d8-49d7-ad24-8556fe3e6748}, !- Handle
  Surface 23,                             !- Name
  Wall,                                   !- Surface Type
  ,                                       !- Construction Name
  {ec357b79-86a7-4f5a-bc0e-f82302d96edb}, !- Space Name
  Outdoors,                               !- Outside Boundary Condition
  ,                                       !- Outside Boundary Condition Object
  SunExposed,                             !- Sun Exposure
  WindExposed,                            !- Wind Exposure
  ,                                       !- View Factor to Ground
  ,                                       !- Number of Vertices
  -15.2088567107781, -15.2088567107781, 1.24875, !- X,Y,Z Vertex 1 {m}
  -15.2088567107781, -15.2088567107781, 0, !- X,Y,Z Vertex 2 {m}
  -22.8132850661672, -22.8132850661671, 0, !- X,Y,Z Vertex 3 {m}
  -22.8132850661672, -22.8132850661671, 1.24875; !- X,Y,Z Vertex 4 {m}

OS:Surface,
  {24a6681d-912f-47d6-bb15-e707d39d84c6}, !- Handle
  Surface 24,                             !- Name
  Wall,                                   !- Surface Type
  ,                                       !- Construction Name
  {ec357b79-86a7-4f5a-bc0e-f82302d96edb}, !- Space Name
  Outdoors,                               !- Outside Boundary Condition
  ,                                       !- Outside Boundary Condition Object
  SunExposed,                             !- Sun Exposure
  WindExposed,                            !- Wind Exposure
  ,                                       !- View Factor to Ground
  ,                                       !- Number of Vertices
  -7.60442835538904, -7.60442835538903, 1.24875, !- X,Y,Z Vertex 1 {m}
  -7.60442835538904, -7.60442835538903, 0, !- X,Y,Z Vertex 2 {m}
  -15.2088567107781, -15.2088567107781, 0, !- X,Y,Z Vertex 3 {m}
  -15.2088567107781, -15.2088567107781, 1.24875; !- X,Y,Z Vertex 4 {m}

OS:Surface,
  {3238f145-d4d2-478f-947b-54b10ad642e5}, !- Handle
  Surface 25,                             !- Name
  Wall,                                   !- Surface Type
  ,                                       !- Construction Name
  {ec357b79-86a7-4f5a-bc0e-f82302d96edb}, !- Space Name
  Outdoors,                               !- Outside Boundary Condition
  ,                                       !- Outside Boundary Condition Object
  SunExposed,                             !- Sun Exposure
  WindExposed,                            !- Wind Exposure
  ,                                       !- View Factor to Ground
  ,                                       !- Number of Vertices
  -3.11140144585472e-15, -2.79748432436497e-14, 1.24875, !- X,Y,Z Vertex 1 {m}
  -3.11140144585472e-15, -2.79748432436497e-14, 0, !- X,Y,Z Vertex 2 {m}
  -7.60442835538904, -7.60442835538903, 0, !- X,Y,Z Vertex 3 {m}
  -7.60442835538904, -7.60442835538903, 1.24875; !- X,Y,Z Vertex 4 {m}

OS:Surface,
  {239395b1-26b5-4739-bf60-1d571e20c5ea}, !- Handle
  Surface 26,                             !- Name
  RoofCeiling,                            !- Surface Type
  ,                                       !- Construction Name
  {ec357b79-86a7-4f5a-bc0e-f82302d96edb}, !- Space Name
  Surface,                                !- Outside Boundary Condition
  {f1dbcc97-69f5-4209-ba74-b66bc018d104}, !- Outside Boundary Condition Object
  NoSun,                                  !- Sun Exposure
  NoWind,                                 !- Wind Exposure
  ,                                       !- View Factor to Ground
  ,                                       !- Number of Vertices
  -11.8511096526865, -94.61088732276, 1.24875, !- X,Y,Z Vertex 1 {m}
  41.3798888350367, -41.3798888350368, 1.24875, !- X,Y,Z Vertex 2 {m}
  -2.66453525910038e-15, -2.8421709430404e-14, 1.24875, !- X,Y,Z Vertex 3 {m}
  -53.2309984877233, -53.2309984877233, 1.24875; !- X,Y,Z Vertex 4 {m}

OS:BuildingStory,
  {c4140d0d-5be7-47ab-97da-8bd876add69f}, !- Handle
  Rectangle:Story 2,                      !- Name
  1.24875,                                !- Nominal Z Coordinate {m}
  0.8325,                                 !- Nominal Floor to Floor Height {m}
  ,                                       !- Default Construction Set Name
  ,                                       !- Default Schedule Set Name
  {99b6fb3a-010c-4bc3-a5c2-edd383163dfc}; !- Group Rendering Name

OS:Space,
  {5daa01e7-5956-42c8-a789-37e8da04a37f}, !- Handle
  0 Core Space 1,                         !- Name
  ,                                       !- Space Type Name
  ,                                       !- Default Construction Set Name
  ,                                       !- Default Schedule Set Name
  -0,                                     !- Direction of Relative North {deg}
  5.92555482634326,                       !- X Origin {m}
  47.30544366138,                         !- Y Origin {m}
  1.24875,                                !- Z Origin {m}
  {c4140d0d-5be7-47ab-97da-8bd876add69f}, !- Building Story Name
  {bcc64762-38f7-4509-b9e0-6469be49390a}; !- Thermal Zone Name

OS:Surface,
  {f1dbcc97-69f5-4209-ba74-b66bc018d104}, !- Handle
  Surface 27,                             !- Name
  Floor,                                  !- Surface Type
  ,                                       !- Construction Name
  {5daa01e7-5956-42c8-a789-37e8da04a37f}, !- Space Name
  Surface,                                !- Outside Boundary Condition
  {239395b1-26b5-4739-bf60-1d571e20c5ea}, !- Outside Boundary Condition Object
  NoSun,                                  !- Sun Exposure
  NoWind,                                 !- Wind Exposure
  ,                                       !- View Factor to Ground
  ,                                       !- Number of Vertices
  -2.66453525910038e-15, -2.8421709430404e-14, 0, !- X,Y,Z Vertex 1 {m}
  41.3798888350367, -41.3798888350368, 0, !- X,Y,Z Vertex 2 {m}
  -11.8511096526865, -94.61088732276, 0,  !- X,Y,Z Vertex 3 {m}
  -53.2309984877233, -53.2309984877233, 0; !- X,Y,Z Vertex 4 {m}

OS:Surface,
  {c85b1541-e34b-421d-8763-8e5db03d7b17}, !- Handle
  Surface 28,                             !- Name
  Wall,                                   !- Surface Type
  ,                                       !- Construction Name
  {5daa01e7-5956-42c8-a789-37e8da04a37f}, !- Space Name
  Outdoors,                               !- Outside Boundary Condition
  ,                                       !- Outside Boundary Condition Object
  SunExposed,                             !- Sun Exposure
  WindExposed,                            !- Wind Exposure
  ,                                       !- View Factor to Ground
  ,                                       !- Number of Vertices
  8.27597776700734, -8.27597776700733, 0.8325, !- X,Y,Z Vertex 1 {m}
  8.27597776700734, -8.27597776700733, 0, !- X,Y,Z Vertex 2 {m}
  -2.58497946976735e-15, -2.8342153641071e-14, 0, !- X,Y,Z Vertex 3 {m}
  -2.58497946976735e-15, -2.8342153641071e-14, 0.8325; !- X,Y,Z Vertex 4 {m}

OS:Surface,
  {921d09d6-d989-483b-ae7d-2683f00a654a}, !- Handle
  Surface 29,                             !- Name
  Wall,                                   !- Surface Type
  ,                                       !- Construction Name
  {5daa01e7-5956-42c8-a789-37e8da04a37f}, !- Space Name
  Outdoors,                               !- Outside Boundary Condition
  ,                                       !- Outside Boundary Condition Object
  SunExposed,                             !- Sun Exposure
  WindExposed,                            !- Wind Exposure