
OS:Version,
  {897afc1d-cbaa-4ba8-b9b8-5a100a13f4b6}, !- Handle
  1.7.0;                                  !- Version Identifier

OS:BuildingStory,
  {068beb4b-555b-4d23-9130-ef767b2733fe}, !- Handle
  rectangle1:Story 1,                     !- Name
  0,                                      !- Nominal Z Coordinate {m}
  1.18635,                                !- Nominal Floor to Floor Height {m}
  ,                                       !- Default Construction Set Name
  ,                                       !- Default Schedule Set Name
  {446bcb80-da4f-4996-b7ec-81063c48dfb1}; !- Group Rendering Name

OS:Space,
  {872534f1-1dbc-4e6e-b40b-5df290094b6d}, !- Handle
  0 Core Space,                           !- Name
  ,                                       !- Space Type Name
  ,                                       !- Default Construction Set Name
  ,                                       !- Default Schedule Set Name
  -0,                                     !- Direction of Relative North {deg}
  3.46,                                   !- X Origin {m}
  -2.81,                                  !- Y Origin {m}
  0,                                      !- Z Origin {m}
  {068beb4b-555b-4d23-9130-ef767b2733fe}, !- Building Story Name
  {fe330047-3e6a-4750-8227-b40014affeb0}; !- Thermal Zone Name

OS:Surface,
  {93513089-c366-4498-9ee4-7adf4dc9c081}, !- Handle
  Surface 1,                              !- Name
  Floor,                                  !- Surface Type
  ,                                       !- Construction Name
  {872534f1-1dbc-4e6e-b40b-5df290094b6d}, !- Space Name
  Ground,                                 !- Outside Boundary Condition
  ,                                       !- Outside Boundary Condition Object
  NoSun,                                  !- Sun Exposure
  NoWind,                                 !- Wind Exposure
  ,                                       !- View Factor to Ground
  ,                                       !- Number of Vertices
  14.63, 0, 0,                            !- X,Y,Z Vertex 1 {m}
  14.63, -18.82, 0,                       !- X,Y,Z Vertex 2 {m}
  0, -18.82, 0,                           !- X,Y,Z Vertex 3 {m}
  0, 0, 0;                                !- X,Y,Z Vertex 4 {m}

OS:Surface,
  {11027a62-c691-4b7c-8e49-cbb6673fb281}, !- Handle
  Surface 2,                              !- Name
  Wall,                                   !- Surface Type
  ,                                       !- Construction Name
  {872534f1-1dbc-4e6e-b40b-5df290094b6d}, !- Space Name
  Outdoors,                               !- Outside Boundary Condition
  ,                                       !- Outside Boundary Condition Object
  SunExposed,                             !- Sun Exposure
  WindExposed,                            !- Wind Exposure
  ,                                       !- View Factor to Ground
  ,                                       !- Number of Vertices
  7.315, 0, 1.18635,                      !- X,Y,Z Vertex 1 {m}
  7.315, 0, 0,                            !- X,Y,Z Vertex 2 {m}
  0, 0, 0,                                !- X,Y,Z Vertex 3 {m}
  0, 0, 1.18635;                          !- X,Y,Z Vertex 4 {m}

OS:Surface,
  {ef2e2e58-8ec9-4703-978f-097ebec7109f}, !- Handle
  Surface 3,                              !- Name
  Wall,                                   !- Surface Type
  ,                                       !- Construction Name
  {872534f1-1dbc-4e6e-b40b-5df290094b6d}, !- Space Name
  Outdoors,                               !- Outside Boundary Condition
  ,                                       !- Outside Boundary Condition Object
  SunExposed,                             !- Sun Exposure
  WindExposed,                            !- Wind Exposure
  ,                                       !- View Factor to Ground
  ,                                       !- Number of Vertices
  14.63, 0, 1.18635,                      !- X,Y,Z Vertex 1 {m}
  14.63, 0, 0,                            !- X,Y,Z Vertex 2 {m}
  7.315, 0, 0,                            !- X,Y,Z Vertex 3 {m}
  7.315, 0, 1.18635;                      !- X,Y,Z Vertex 4 {m}

OS:Surface,
  {1803989f-d3df-4c49-bada-686acafa6728}, !- Handle
  Surface 4,                              !- Name
  Wall,                                   !- Surface Type
  ,                                       !- Construction Name
  {872534f1-1dbc-4e6e-b40b-5df290094b6d}, !- Space Name
  Outdoors,                               !- Outside Boundary Condition
  ,                                       !- Outside Boundary Condition Object
  SunExposed,                             !- Sun Exposure
  WindExposed,                            !- Wind Exposure
  ,                                       !- View Factor to Ground
  ,                                       !- Number of Vertices
  14.63, -9.41, 1.18635,                  !- X,Y,Z Vertex 1 {m}
  14.63, -9.41, 0,                        !- X,Y,Z Vertex 2 {m}
  14.63, 0, 0,                            !- X,Y,Z Vertex 3 {m}
  14.63, 0, 1.18635;                      !- X,Y,Z Vertex 4 {m}

OS:Surface,
  {6a070f86-8481-4728-9a4e-e8f105af53e8}, !- Handle
  Surface 5,                              !- Name
  Wall,                                   !- Surface Type
  ,                                       !- Construction Name
  {872534f1-1dbc-4e6e-b40b-5df290094b6d}, !- Space Name
  Outdoors,                               !- Outside Boundary Condition
  ,                                       !- Outside Boundary Condition Object
  SunExposed,                             !- Sun Exposure
  WindExposed,                            !- Wind Exposure
  ,                                       !- View Factor to Ground
  ,                                       !- Number of Vertices
  14.63, -18.82, 1.18635,                 !- X,Y,Z Vertex 1 {m}
  14.63, -18.82, 0,                       !- X,Y,Z Vertex 2 {m}
  14.63, -9.41, 0,                        !- X,Y,Z Vertex 3 {m}
  14.63, -9.41, 1.18635;                  !- X,Y,Z Vertex 4 {m}

OS:Surface,
  {3f01a54c-3244-4ccd-bc4c-d36ff96829a6}, !- Handle
  Surface 6,                              !- Name
  Wall,                                   !- Surface Type
  ,                                       !- Construction Name
  {872534f1-1dbc-4e6e-b40b-5df290094b6d}, !- Space Name
  Outdoors,                               !- Outside Boundary Condition
  ,                                       !- Outside Boundary Condition Object
  SunExposed,                             !- Sun Exposure
  WindExposed,                            !- Wind Exposure
  ,                                       !- View Factor to Ground
  ,                                       !- Number of Vertices
  7.315, -18.82, 1.18635,                 !- X,Y,Z Vertex 1 {m}
  7.315, -18.82, 0,                       !- X,Y,Z Vertex 2 {m}
  14.63, -18.82, 0,                       !- X,Y,Z Vertex 3 {m}
  14.63, -18.82, 1.18635;                 !- X,Y,Z Vertex 4 {m}

OS:Surface,
  {5e30a0cf-4541-4a59-ac1f-40f83d56af68}, !- Handle
  Surface 7,                              !- Name
  Wall,                                   !- Surface Type
  ,                                       !- Construction Name
  {872534f1-1dbc-4e6e-b40b-5df290094b6d}, !- Space Name
  Outdoors,                               !- Outside Boundary Condition
  ,                                       !- Outside Boundary Condition Object
  SunExposed,                             !- Sun Exposure
  WindExposed,                            !- Wind Exposure
  ,                                       !- View Factor to Ground
  ,                                       !- Number of Vertices
  0, -18.82, 1.18635,                     !- X,Y,Z Vertex 1 {m}
  0, -18.82, 0,                           !- X,Y,Z Vertex 2 {m}
  7.315, -18.82, 0,                       !- X,Y,Z Vertex 3 {m}
  7.315, -18.82, 1.18635;                 !- X,Y,Z Vertex 4 {m}

OS:Surface,
  {30238262-a8ef-4406-a8d1-b621bfad677f}, !- Handle
  Surface 8,                              !- Name
  Wall,                                   !- Surface Type
  ,                                       !- Construction Name
  {872534f1-1dbc-4e6e-b40b-5df290094b6d}, !- Space Name
  Outdoors,                               !- Outside Boundary Condition
  ,                                       !- Outside Boundary Condition Object
  SunExposed,                             !- Sun Exposure
  WindExposed,                            !- Wind Exposure
  ,                                       !- View Factor to Ground
  ,                                       !- Number of Vertices
  0, -9.41, 1.18635,                      !- X,Y,Z Vertex 1 {m}
  0, -9.41, 0,                            !- X,Y,Z Vertex 2 {m}
  0, -18.82, 0,                           !- X,Y,Z Vertex 3 {m}
  0, -18.82, 1.18635;                     !- X,Y,Z Vertex 4 {m}

OS:Surface,
  {194477e0-b307-4743-9e5c-ba422894613f}, !- Handle
  Surface 9,                              !- Name
  Wall,                                   !- Surface Type
  ,                                       !- Construction Name
  {872534f1-1dbc-4e6e-b40b-5df290094b6d}, !- Space Name
  Outdoors,                               !- Outside Boundary Condition
  ,                                       !- Outside Boundary Condition Object
  SunExposed,                             !- Sun Exposure
  WindExposed,                            !- Wind Exposure
  ,                                       !- View Factor to Ground
  ,                                       !- Number of Vertices
  0, 0, 1.18635,                          !- X,Y,Z Vertex 1 {m}
  0, 0, 0,                                !- X,Y,Z Vertex 2 {m}
  0, -9.41, 0,                            !- X,Y,Z Vertex 3 {m}
  0, -9.41, 1.18635;                      !- X,Y,Z Vertex 4 {m}

OS:Surface,
  {71db9a46-dd93-4e0f-a88c-c70bfbdf8c86}, !- Handle
  Surface 10,                             !- Name
  RoofCeiling,                            !- Surface Type
  ,                                       !- Construction Name
  {872534f1-1dbc-4e6e-b40b-5df290094b6d}, !- Space Name
  Surface,                                !- Outside Boundary Condition
  {b0394dd7-36d8-4a51-976b-6f3085ab0e59}, !- Outside Boundary Condition Object
  NoSun,                                  !- Sun Exposure
  NoWind,                                 !- Wind Exposure
  ,                                       !- View Factor to Ground
  ,                                       !- Number of Vertices
  14.63, -18.82, 1.18635,                 !- X,Y,Z Vertex 1 {m}
  14.63, 0, 1.18635,                      !- X,Y,Z Vertex 2 {m}
  0, 0, 1.18635,                          !- X,Y,Z Vertex 3 {m}
  0, -18.82, 1.18635;                     !- X,Y,Z Vertex 4 {m}

OS:BuildingStory,
  {3453ea34-bb24-46c9-a650-e218d2e55bc7}, !- Handle
  rectangle1:Story 2,                     !- Name
  1.18635,                                !- Nominal Z Coordinate {m}
  0.9273,                                 !- Nominal Floor to Floor Height {m}
  ,                                       !- Default Construction Set Name
  ,                                       !- Default Schedule Set Name
  {54c582f5-6e39-4dbf-987d-870d72931ab2}; !- Group Rendering Name

OS:Space,
  {44068126-8009-4193-8ee8-60d696165939}, !- Handle
  0 Core Space 1,                         !- Name
  ,                                       !- Space Type Name
  ,                                       !- Default Construction Set Name
  ,                                       !- Default Schedule Set Name
  -0,                                     !- Direction of Relative North {deg}
  3.46,                                   !- X Origin {m}
  -2.81,                                  !- Y Origin {m}
  1.18635,                                !- Z Origin {m}
  {3453ea34-bb24-46c9-a650-e218d2e55bc7}, !- Building Story Name
  {4aea4329-da4d-4698-8fcb-ddb3c4d8f978}; !- Thermal Zone Name

OS:Surface,
  {b0394dd7-36d8-4a51-976b-6f3085ab0e59}, !- Handle
  Surface 11,                             !- Name
  Floor,                                  !- Surface Type
  ,                                       !- Construction Name
  {44068126-8009-4193-8ee8-60d696165939}, !- Space Name
  Surface,                                !- Outside Boundary Condition
  {71db9a46-dd93-4e0f-a88c-c70bfbdf8c86}, !- Outside Boundary Condition Object
  NoSun,                                  !- Sun Exposure
  NoWind,                                 !- Wind Exposure
  ,                                       !- View Factor to Ground
  ,                                       !- Number of Vertices
  14.63, 0, 0,                            !- X,Y,Z Vertex 1 {m}
  14.63, -18.82, 0,                       !- X,Y,Z Vertex 2 {m}
  0, -18.82, 0,                           !- X,Y,Z Vertex 3 {m}
  0, 0, 0;                                !- X,Y,Z Vertex 4 {m}

OS:Surface,
  {f07199aa-0e0c-49e2-9ec4-64e579ecc150}, !- Handle
  Surface 12,                             !- Name
  Wall,                                   !- Surface Type
  ,                                       !- Construction Name
  {44068126-8009-4193-8ee8-60d696165939}, !- Space Name
  Outdoors,                               !- Outside Boundary Condition
  ,                                       !- Outside Boundary Condition Object
  SunExposed,                             !- Sun Exposure
  WindExposed,                            !- Wind Exposure
  ,                                       !- View Factor to Ground
  ,                                       !- Number of Vertices
  7.315, 0, 0.9273,                       !- X,Y,Z Vertex 1 {m}
  7.315, 0, 0,                            !- X,Y,Z Vertex 2 {m}
  0, 0, 0,                                !- X,Y,Z Vertex 3 {m}
  0, 0, 0.9273;                           !- X,Y,Z Vertex 4 {m}

OS:Surface,
  {9272fdde-16fd-48ec-8880-6667c5f5582f}, !- Handle
  Surface 13,                             !- Name
  Wall,                                   !- Surface Type
  ,                                       !- Construction Name
  {44068126-8009-4193-8ee8-60d696165939}, !- Space Name
  Outdoors,                               !- Outside Boundary Condition
  ,                                       !- Outside Boundary Condition Object
  SunExposed,                             !- Sun Exposure
  WindExposed,                            !- Wind Exposure
  ,                                       !- View Factor to Ground
  ,                                       !- Number of Vertices
  14.63, 0, 0.9273,                       !- X,Y,Z Vertex 1 {m}
  14.63, 0, 0,                            !- X,Y,Z Vertex 2 {m}
  7.315, 0, 0,                            !- X,Y,Z Vertex 3 {m}
  7.315, 0, 0.9273;                       !- X,Y,Z Vertex 4 {m}

OS:Surface,
  {1c47768c-b669-4fa9-9251-084f3ac0d714}, !- Handle
  Surface 14,                             !- Name
  Wall,                                   !- Surface Type
  ,                                       !- Construction Name
  {44068126-8009-4193-8ee8-60d696165939}, !- Space Name
  Outdoors,                               !- Outside Boundary Condition
  ,                                       !- Outside Boundary Condition Object
  SunExposed,                             !- Sun Exposure
  WindExposed,                            !- Wind Exposure
  ,                                       !- View Factor to Ground
  ,                                       !- Number of Vertices
  14.63, -9.41, 0.9273,                   !- X,Y,Z Vertex 1 {m}
  14.63, -9.41, 0,                        !- X,Y,Z Vertex 2 {m}
  14.63, 0, 0,                            !- X,Y,Z Vertex 3 {m}
  14.63, 0, 0.9273;                       !- X,Y,Z Vertex 4 {m}

OS:Surface,
  {b54f1937-9973-4db7-9ede-9662e6da0059}, !- Handle
  Surface 15,                             !- Name
  Wall,                                   !- Surface Type
  ,                                       !- Construction Name
  {44068126-8009-4193-8ee8-60d696165939}, !- Space Name
  Outdoors,                               !- Outside Boundary Condition
  ,                                       !- Outside Boundary Condition Object
  SunExposed,                             !- Sun Exposure
  WindExposed,                            !- Wind Exposure
  ,                                       !- View Factor to Ground
  ,                                       !- Number of Vertices
  14.63, -18.82, 0.9273,                  !- X,Y,Z Vertex 1 {m}
  14.63, -18.82, 0,                       !- X,Y,Z Vertex 2 {m}
  14.63, -9.41, 0,                        !- X,Y,Z Vertex 3 {m}
  14.63, -9.41, 0.9273;                   !- X,Y,Z Vertex 4 {m}

OS:Surface,
  {66b9af3f-0908-4f29-821f-50b1abcc3310}, !- Handle
  Surface 16,                             !- Name
  Wall,                                   !- Surface Type
  ,                                       !- Construction Name
  {44068126-8009-4193-8ee8-60d696165939}, !- Space Name
  Outdoors,                               !- Outside Boundary Condition
  ,                                       !- Outside Boundary Condition Object
  SunExposed,                             !- Sun Exposure
  WindExposed,                            !- Wind Exposure
  ,                                       !- View Factor to Ground
  ,                                       !- Number of Vertices
  7.315, -18.82, 0.9273,                  !- X,Y,Z Vertex 1 {m}
  7.315, -18.82, 0,                       !- X,Y,Z Vertex 2 {m}
  14.63, -18.82, 0,                       !- X,Y,Z Vertex 3 {m}
  14.63, -18.82, 0.9273;                  !- X,Y,Z Vertex 4 {m}

OS:Surface,
  {8b1c6dd8-a738-4c6b-8039-e778836b7711}, !- Handle
  Surface 17,                             !- Name
  Wall,                                   !- Surface Type
  ,                                       !- Construction Name
  {44068126-8009-4193-8ee8-60d696165939}, !- Space Name
  Outdoors,                               !- Outside Boundary Condition
  ,                                       !- Outside Boundary Condition Object
  SunExposed,                             !- Sun Exposure
  WindExposed,                            !- Wind Exposure
  ,                                       !- View Factor to Ground
  ,                                       !- Number of Vertices
  0, -18.82, 0.9273,                      !- X,Y,Z Vertex 1 {m}
  0, -18.82, 0,                           !- X,Y,Z Vertex 2 {m}
  7.315, -18.82, 0,                       !- X,Y,Z Vertex 3 {m}
  7.315, -18.82, 0.9273;                  !- X,Y,Z Vertex 4 {m}

OS:Surface,
  {fef435da-3974-4269-b0cb-f0d0bd1fcbd2}, !- Handle
  Surface 18,                             !- Name
  Wall,                                   !- Surface Type
  ,                                       !- Construction Name
  {44068126-8009-4193-8ee8-60d696165939}, !- Space Name
  Outdoors,                               !- Outside Boundary Condition
  ,                                       !- Outside Boundary Condition Object
  SunExposed,                             !- Sun Exposure
  WindExposed,                            !- Wind Exposure
  ,                                       !- View Factor to Ground
  ,                                       !- Number of Vertices
  0, -9.41, 0.9273,                       !- X,Y,Z Vertex 1 {m}
  0, -9.41, 0,                            !- X,Y,Z Vertex 2 {m}
  0, -18.82, 0,                           !- X,Y,Z Vertex 3 {m}
  0, -18.82, 0.9273;                      !- X,Y,Z Vertex 4 {m}

OS:Surface,
  {74b33d7b-d0f5-447f-b2e4-5ef593610f3f}, !- Handle
  Surface 19,                             !- Name
  Wall,                                   !- Surface Type
  ,                                       !- Construction Name
  {44068126-8009-4193-8ee8-60d696165939}, !- Space Name
  Outdoors,                               !- Outside Boundary Condition
  ,                                       !- Outside Boundary Condition Object
  SunExposed,                             !- Sun Exposure
  WindExposed,                            !- Wind Exposure
  ,                                       !- View Factor to Ground
  ,                                       !- Number of Vertices
  0, 0, 0.9273,                           !- X,Y,Z Vertex 1 {m}
  0, 0, 0,                                !- X,Y,Z Vertex 2 {m}
  0, -9.41, 0,                            !- X,Y,Z Vertex 3 {m}
  0, -9.41, 0.9273;                       !- X,Y,Z Vertex 4 {m}

OS:Surface,
  {fccb2669-41c0-4bf0-b626-61d77d2c2867}, !- Handle
  Surface 20,                             !- Name
  RoofCeiling,                            !- Surface Type
  ,                                       !- Construction Name
  {44068126-8009-4193-8ee8-60d696165939}, !- Space Name
  Surface,                                !- Outside Boundary Condition
  {3837aece-4388-4f40-883d-0068c1173065}, !- Outside Boundary Condition Object
  NoSun,                                  !- Sun Exposure
  NoWind,                                 !- Wind Exposure
  ,                                       !- View Factor to Ground
  ,                                       !- Number of Vertices
  14.63, -18.82, 0.9273,                  !- X,Y,Z Vertex 1 {m}
  14.63, 0, 0.9273,                       !- X,Y,Z Vertex 2 {m}
  0, 0, 0.9273,                           !- X,Y,Z Vertex 3 {m}
  0, -18.82, 0.9273;                      !- X,Y,Z Vertex 4 {m}

OS:SubSurface,
  {e2d859b7-0762-4fad-aff1-3dc43701f907}, !- Handle
  Sub Surface 1,                          !- Name
  FixedWindow,                            !- Sub Surface Type
  ,                                       !- Construction Name
  {1c47768c-b669-4fa9-9251-084f3ac0d714}, !- Surface Name
  ,                                       !- Outside Boundary Condition Object
  ,                                       !- View Factor to Ground
  ,                                       !- Shading Control Name
  ,                                       !- Frame and Divider Name
  ,                                       !- Multiplier
  ,                                       !- Number of Vertices
  14.63, -9.3846, 0.893728180293188,      !- X,Y,Z Vertex 1 {m}
  14.63, -9.3846, 0.0254,                 !- X,Y,Z Vertex 2 {m}
  14.63, -0.0254000000000012, 0.0254,     !- X,Y,Z Vertex 3 {m}
  14.63, -0.0254000000000012, 0.893728180293188; !- X,Y,Z Vertex 4 {m}

OS:SubSurface,
  {8673193a-e973-4616-a2a6-6a482c2e3fcf}, !- Handle
  Sub Surface 2,                          !- Name
  FixedWindow,                            !- Sub Surface Type
  ,                                       !- Construction Name
  {66b9af3f-0908-4f29-821f-50b1abcc3310}, !- Surface Name
  ,                                       !- Outside Boundary Condition Object
  ,                                       !- View Factor to Ground
  ,                                       !- Shading Control Name
  ,                                       !- Frame and Divider Name
  ,                                       !- Multiplier
  ,                                       !- Number of Vertices
  7.3404, -18.82, 0.895080110335618,      !- X,Y,Z Vertex 1 {m}
  7.3404, -18.82, 0.0254,                 !- X,Y,Z Vertex 2 {m}
  14.6046, -18.82, 0.0254,                !- X,Y,Z Vertex 3 {m}
  14.6046, -18.82, 0.895080110335618;     !- X,Y,Z Vertex 4 {m}

OS:SubSurface,
  {749a53cc-cebd-402f-adb3-cde28a36f4ef}, !- Handle
  Sub Surface 3,                          !- Name
  FixedWindow,                            !- Sub Surface Type
  ,                                       !- Construction Name
  {74b33d7b-d0f5-447f-b2e4-5ef593610f3f}, !- Surface Name
  ,                                       !- Outside Boundary Condition Object
  ,                                       !- View Factor to Ground
  ,                                       !- Shading Control Name
  ,                                       !- Frame and Divider Name
  ,                                       !- Multiplier
  ,                                       !- Number of Vertices
  0, -0.0254, 0.893728180293188,          !- X,Y,Z Vertex 1 {m}
  0, -0.0254, 0.0254,                     !- X,Y,Z Vertex 2 {m}
  0, -9.3846, 0.0254,                     !- X,Y,Z Vertex 3 {m}
  0, -9.3846, 0.893728180293188;          !- X,Y,Z Vertex 4 {m}

OS:SubSurface,
  {36402154-54f9-4a77-a7e8-e58da05cdcc9}, !- Handle
  Sub Surface 4,                          !- Name
  FixedWindow,                            !- Sub Surface Type
  ,                                       !- Construction Name
  {8b1c6dd8-a738-4c6b-8039-e778836b7711}, !- Surface Name
  ,                                       !- Outside Boundary Condition Object
  ,                                       !- View Factor to Ground
  ,                                       !- Shading Control Name
  ,                                       !- Frame and Divider Name
  ,                                       !- Multiplier
  ,                                       !- Number of Vertices
  0.0254, -18.82, 0.895080110335618,      !- X,Y,Z Vertex 1 {m}
  0.0254, -18.82, 0.0254,                 !- X,Y,Z Vertex 2 {m}
  7.2896, -18.82, 0.0254,                 !- X,Y,Z Vertex 3 {m}
  7.2896, -18.82, 0.895080110335618;      !- X,Y,Z Vertex 4 {m}

OS:SubSurface,
  {85f1aed4-5166-4da4-a573-3d1a7107f9e6}, !- Handle
  Sub Surface 5,                          !- Name
  FixedWindow,                            !- Sub Surface Type
  ,                                       !- Construction Name
  {9272fdde-16fd-48ec-8880-6667c5f5582f}, !- Surface Name
  ,                                       !- Outside Boundary Condition Object
  ,                                       !- View Factor to Ground
  ,                                       !- Shading Control Name
  ,                                       !- Frame and Divider Name
  ,                                       !- Multiplier
  ,                                       !- Number of Vertices
  14.6046, 0, 0.895080110335618,          !- X,Y,Z Vertex 1 {m}
  14.6046, 0, 0.0254,                     !- X,Y,Z Vertex 2 {m}
  7.3404, 0, 0.0254,                      !- X,Y,Z Vertex 3 {m}
  7.3404, 0, 0.895080110335618;           !- X,Y,Z Vertex 4 {m}

OS:SubSurface,
  {ec55f038-41bb-4233-a677-9c41b159ab17}, !- Handle
  Sub Surface 6,                          !- Name
  FixedWindow,                            !- Sub Surface Type
  ,                                       !- Construction Name
  {b54f1937-9973-4db7-9ede-9662e6da0059}, !- Surface Name
  ,                                       !- Outside Boundary Condition Object
  ,                                       !- View Factor to Ground
  ,                                       !- Shading Control Name
  ,                                       !- Frame and Divider Name
  ,                                       !- Multiplier
  ,                                       !- Number of Vertices
  14.63, -18.7946, 0.893728180293188,     !- X,Y,Z Vertex 1 {m}
  14.63, -18.7946, 0.0254,                !- X,Y,Z Vertex 2 {m}
  14.63, -9.4354, 0.0254,                 !- X,Y,Z Vertex 3 {m}
  14.63, -9.4354, 0.893728180293188;      !- X,Y,Z Vertex 4 {m}

OS:SubSurface,
  {c0cad73d-56ea-420a-bb72-4bd9ea7a02a7}, !- Handle
  Sub Surface 7,                          !- Name
  FixedWindow,                            !- Sub Surface Type
  ,                                       !- Construction Name
  {f07199aa-0e0c-49e2-9ec4-64e579ecc150}, !- Surface Name
  ,                                       !- Outside Boundary Condition Object
  ,                                       !- View Factor to Ground
  ,                                       !- Shading Control Name
  ,                                       !- Frame and Divider Name
  ,                                       !- Multiplier
  ,                                       !- Number of Vertices
  7.2896, 0, 0.895080110335618,           !- X,Y,Z Vertex 1 {m}
  7.2896, 0, 0.0254,                      !- X,Y,Z Vertex 2 {m}
  0.0253999999999994, 0, 0.0254,          !- X,Y,Z Vertex 3 {m}
  0.0253999999999994, 0, 0.895080110335618; !- X,Y,Z Vertex 4 {m}

OS:SubSurface,
  {4332fc71-842b-41c5-a023-9b726b2a0947}, !- Handle
  Sub Surface 8,                          !- Name
  FixedWindow,                            !- Sub Surface Type
  ,                                       !- Construction Name
  {fef435da-3974-4269-b0cb-f0d0bd1fcbd2}, !- Surface Name
  ,                                       !- Outside Boundary Condition Object
  ,                                       !- View Factor to Ground
  ,                                       !- Shading Control Name
  ,                                       !- Frame and Divider Name
  ,                                       !- Multiplier
  ,                                       !- Number of Vertices
  0, -9.4354, 0.893728180293188,          !- X,Y,Z Vertex 1 {m}
  0, -9.4354, 0.0254,                     !- X,Y,Z Vertex 2 {m}
  0, -18.7946, 0.0254,                    !- X,Y,Z Vertex 3 {m}
  0, -18.7946, 0.893728180293188;         !- X,Y,Z Vertex 4 {m}

OS:BuildingStory,
  {a1161be8-d5e6-4092-8638-da059e65b2df}, !- Handle
  rectangle1:Story 3,                     !- Name
  2.11365,                                !- Nominal Z Coordinate {m}
  1.18635,                                !- Nominal Floor to Floor Height {m}
  ,                                       !- Default Construction Set Name
  ,                                       !- Default Schedule Set Name
  {69e15ff7-d80e-4462-a275-60da5f6f289b}; !- Group Rendering Name

OS:Space,
  {15eacecb-500a-4a62-a401-e4387935f17f}, !- Handle
  0 Core Space 2,                         !- Name
  ,                                       !- Space Type Name
  ,                                       !- Default Construction Set Name
  ,                                       !- Default Schedule Set Name
  -0,                                     !- Direction of Relative North {deg}