
OS:Version,
  {9e09b5c8-ccfd-474c-a6ed-e70c18e330f7}, !- Handle
  1.7.0;                                  !- Version Identifier

OS:BuildingStory,
  {4fd16207-dd23-4a99-ba42-96f8430e6df3}, !- Handle
  Rectangle:Story 1,                      !- Name
  0,                                      !- Nominal Z Coordinate {m}
  1.24875,                                !- Nominal Floor to Floor Height {m}
  ,                                       !- Default Construction Set Name
  ,                                       !- Default Schedule Set Name
  {86faa8f3-baae-4c2a-a6a7-e4591675086e}; !- Group Rendering Name

OS:Space,
  {bb004475-1bf8-4aad-8aab-ca218f745c1f}, !- Handle
  0 Core Space,                           !- Name
  ,                                       !- Space Type Name
  ,                                       !- Default Construction Set Name
  ,                                       !- Default Schedule Set Name
  -0,                                     !- Direction of Relative North {deg}
  5.92555482634326,                       !- X Origin {m}
  47.30544366138,                         !- Y Origin {m}
  0,                                      !- Z Origin {m}
  {4fd16207-dd23-4a99-ba42-96f8430e6df3}, !- Building Story Name
  {a8e22bcb-c8ba-4a52-967e-916cc2a0d581}; !- Thermal Zone Name

OS:Surface,
  {5773e479-e095-4b60-9e37-bcc4c3306ea3}, !- Handle
  Surface 1,                              !- Name
  Floor,                                  !- Surface Type
  ,                                       !- Construction Name
  {bb004475-1bf8-4aad-8aab-ca218f745c1f}, !- Space Name
  Ground,                                 !- Outside Boundary Condition
  ,                                       !- Outside Boundary Condition Object
  NoSun,                                  !- Sun Exposure
  NoWind,                                 !- Wind Exposure
  ,                                       !- View Factor to Ground
  ,                                       !- Number of Vertices
  -2.66453525910038e-15, -2.8421709430404e-14, 0, !- X,Y,Z Vertex 1 {m}
  41.3798888350367, -41.3798888350368, 0, !- X,Y,Z Vertex 2 {m}
  -11.8511096526865, -94.61088732276, 0,  !- X,Y,Z Vertex 3 {m}
  -53.2309984877233, -53.2309984877233, 0; !- X,Y,Z Vertex 4 {m}

OS:Surface,
  {683e0744-453a-4c5e-8953-86f141830956}, !- Handle
  Surface 2,                              !- Name
  Wall,                                   !- Surface Type
  ,                                       !- Construction Name
  {bb004475-1bf8-4aad-8aab-ca218f745c1f}, !- Space Name
  Outdoors,                               !- Outside Boundary Condition
  ,                                       !- Outside Boundary Condition Object
  SunExposed,                             !- Sun Exposure
  WindExposed,                            !- Wind Exposure
  ,                                       !- View Factor to Ground
  ,                                       !- Number of Vertices
  8.27597776700734, -8.27597776700733, 1.24875, !- X,Y,Z Vertex 1 {m}
  8.27597776700734, -8.27597776700733, 0, !- X,Y,Z Vertex 2 {m}
  -2.07451100960011e-15, -2.78316851809037e-14, 0, !- X,Y,Z Vertex 3 {m}
  -2.07451100960011e-15, -2.78316851809037e-14, 1.24875; !- X,Y,Z Vertex 4 {m}

OS:Surface,
  {216a5ef9-ea7e-4ca1-918e-dd88cc774a7c}, !- Handle
  Surface 3,                              !- Name
  Wall,                                   !- Surface Type
  ,                                       !- Construction Name
  {bb004475-1bf8-4aad-8aab-ca218f745c1f}, !- Space Name
  Outdoors,                               !- Outside Boundary Condition
  ,                                       !- Outside Boundary Condition Object
  SunExposed,                             !- Sun Exposure
  WindExposed,                            !- Wind Exposure
  ,                                       !- View Factor to Ground
  ,                                       !- Number of Vertices
  16.5519555340147, -16.5519555340147, 1.24875, !- X,Y,Z Vertex 1 {m}
  16.5519555340147, -16.5519555340147, 0, !- X,Y,Z Vertex 2 {m}
  8.27597776700734, -8.27597776700733, 0, !- X,Y,Z Vertex 3 {m}
  8.27597776700734, -8.27597776700733, 1.24875; !- X,Y,Z Vertex 4 {m}

OS:Surface,
  {3b5a8b3e-1873-4835-95d9-3642f316ea3b}, !- Handle
  Surface 4,                              !- Name
  Wall,                                   !- Surface Type
  ,                                       !- Construction Name
  {bb004475-1bf8-4aad-8aab-ca218f745c1f}, !- Space Name
  Outdoors,                               !- Outside Boundary Condition
  ,                                       !- Outside Boundary Condition Object
  SunExposed,                             !- Sun Exposure
  WindExposed,                            !- Wind Exposure
  ,                                       !- View Factor to Ground
  ,                                       !- Number of Vertices
  24.827933301022, -24.827933301022, 1.24875, !- X,Y,Z Vertex 1 {m}
  24.827933301022, -24.827933301022, 0,   !- X,Y,Z Vertex 2 {m}
  16.5519555340147, -16.5519555340147, 0, !- X,Y,Z Vertex 3 {m}
  16.5519555340147, -16.5519555340147, 1.24875; !- X,Y,Z Vertex 4 {m}

OS:Surface,
  {3b67aa0e-f32b-4e08-a920-0c2c41535bd9}, !- Handle
  Surface 5,                              !- Name
  Wall,                                   !- Surface Type
  ,                                       !- Construction Name
  {bb004475-1bf8-4aad-8aab-ca218f745c1f}, !- Space Name
  Outdoors,                               !- Outside Boundary Condition
  ,                                       !- Outside Boundary Condition Object
  SunExposed,                             !- Sun Exposure
  WindExposed,                            !- Wind Exposure
  ,                                       !- View Factor to Ground
  ,                                       !- Number of Vertices
  33.1039110680294, -33.1039110680294, 1.24875, !- X,Y,Z Vertex 1 {m}
  33.1039110680294, -33.1039110680294, 0, !- X,Y,Z Vertex 2 {m}
  24.827933301022, -24.827933301022, 0,   !- X,Y,Z Vertex 3 {m}
  24.827933301022, -24.827933301022, 1.24875; !- X,Y,Z Vertex 4 {m}

OS:Surface,
  {c292ebf4-59ed-46fd-a9da-7dc269215a6a}, !- Handle
  Surface 6,                              !- Name
  Wall,                                   !- Surface Type
  ,                                       !- Construction Name
  {bb004475-1bf8-4aad-8aab-ca218f745c1f}, !- Space Name
  Outdoors,                               !- Outside Boundary Condition
  ,                                       !- Outside Boundary Condition Object
  SunExposed,                             !- Sun Exposure
  WindExposed,                            !- Wind Exposure
  ,                                       !- View Factor to Ground
  ,                                       !- Number of Vertices
  41.3798888350367, -41.3798888350368, 1.24875, !- X,Y,Z Vertex 1 {m}
  41.3798888350367, -41.3798888350368, 0, !- X,Y,Z Vertex 2 {m}
  33.1039110680294, -33.1039110680294, 0, !- X,Y,Z Vertex 3 {m}
  33.1039110680294, -33.1039110680294, 1.24875; !- X,Y,Z Vertex 4 {m}

OS:Surface,
  {27f41e80-e364-4718-b4b3-8f2b86bb3e42}, !- Handle
  Surface 7,                              !- Name
  Wall,                                   !- Surface Type
  ,                                       !- Construction Name
  {bb004475-1bf8-4aad-8aab-ca218f745c1f}, !- Space Name
  Outdoors,                               !- Outside Boundary Condition
  ,                                       !- Outside Boundary Condition Object
  SunExposed,                             !- Sun Exposure
  WindExposed,                            !- Wind Exposure
  ,                                       !- View Factor to Ground
  ,                                       !- Number of Vertices
  33.7754604796477, -48.9843171904258, 1.24875, !- X,Y,Z Vertex 1 {m}
  33.7754604796477, -48.9843171904258, 0, !- X,Y,Z Vertex 2 {m}
  41.3798888350367, -41.3798888350368, 0, !- X,Y,Z Vertex 3 {m}
  41.3798888350367, -41.3798888350368, 1.24875; !- X,Y,Z Vertex 4 {m}

OS:Surface,
  {d58b0aa9-efce-4ce9-a0de-e9f77c4c6eac}, !- Handle
  Surface 8,                              !- Name
  Wall,                                   !- Surface Type
  ,                                       !- Construction Name
  {bb004475-1bf8-4aad-8aab-ca218f745c1f}, !- Space Name
  Outdoors,                               !- Outside Boundary Condition
  ,                                       !- Outside Boundary Condition Object
  SunExposed,                             !- Sun Exposure
  WindExposed,                            !- Wind Exposure
  ,                                       !- View Factor to Ground
  ,                                       !- Number of Vertices
  26.1710321242586, -56.5887455458149, 1.24875, !- X,Y,Z Vertex 1 {m}
  26.1710321242586, -56.5887455458149, 0, !- X,Y,Z Vertex 2 {m}
  33.7754604796477, -48.9843171904258, 0, !- X,Y,Z Vertex 3 {m}
  33.7754604796477, -48.9843171904258, 1.24875; !- X,Y,Z Vertex 4 {m}

OS:Surface,
  {5a19db59-317e-4d4e-af14-057d983d063d}, !- Handle
  Surface 9,                              !- Name
  Wall,                                   !- Surface Type
  ,                                       !- Construction Name
  {bb004475-1bf8-4aad-8aab-ca218f745c1f}, !- Space Name
  Outdoors,                               !- Outside Boundary Condition
  ,                                       !- Outside Boundary Condition Object
  SunExposed,                             !- Sun Exposure
  WindExposed,                            !- Wind Exposure
  ,                                       !- View Factor to Ground
  ,                                       !- Number of Vertices
  18.5666037688696, -64.1931739012039, 1.24875, !- X,Y,Z Vertex 1 {m}
  18.5666037688696, -64.1931739012039, 0, !- X,Y,Z Vertex 2 {m}
  26.1710321242586, -56.5887455458149, 0, !- X,Y,Z Vertex 3 {m}
  26.1710321242586, -56.5887455458149, 1.24875; !- X,Y,Z Vertex 4 {m}

OS:Surface,
  {9e6c4570-4288-490b-83af-7a33dc09fd41}, !- Handle
  Surface 10,                             !- Name
  Wall,                                   !- Surface Type
  ,                                       !- Construction Name
  {bb004475-1bf8-4aad-8aab-ca218f745c1f}, !- Space Name
  Outdoors,                               !- Outside Boundary Condition
  ,                                       !- Outside Boundary Condition Object
  SunExposed,                             !- Sun Exposure
  WindExposed,                            !- Wind Exposure
  ,                                       !- View Factor to Ground
  ,                                       !- Number of Vertices
  10.9621754134806, -71.7976022565929, 1.24875, !- X,Y,Z Vertex 1 {m}
  10.9621754134806, -71.7976022565929, 0, !- X,Y,Z Vertex 2 {m}
  18.5666037688696, -64.1931739012039, 0, !- X,Y,Z Vertex 3 {m}
  18.5666037688696, -64.1931739012039, 1.24875; !- X,Y,Z Vertex 4 {m}

OS:Surface,
  {761382fa-253f-4fd1-a6e4-dadb8b0e4594}, !- Handle
  Surface 11,                             !- Name
  Wall,                                   !- Surface Type
  ,                                       !- Construction Name
  {bb004475-1bf8-4aad-8aab-ca218f745c1f}, !- Space Name
  Outdoors,                               !- Outside Boundary Condition
  ,                                       !- Outside Boundary Condition Object
  SunExposed,                             !- Sun Exposure
  WindExposed,                            !- Wind Exposure
  ,                                       !- View Factor to Ground
  ,                                       !- Number of Vertices
  3.35774705809156, -79.402030611982, 1.24875, !- X,Y,Z Vertex 1 {m}
  3.35774705809156, -79.402030611982, 0,  !- X,Y,Z Vertex 2 {m}
  10.9621754134806, -71.7976022565929, 0, !- X,Y,Z Vertex 3 {m}
  10.9621754134806, -71.7976022565929, 1.24875; !- X,Y,Z Vertex 4 {m}

OS:Surface,
  {1594f1ce-79a6-40e2-8160-0c791cc02f88}, !- Handle
  Surface 12,                             !- Name
  Wall,                                   !- Surface Type
  ,                                       !- Construction Name
  {bb004475-1bf8-4aad-8aab-ca218f745c1f}, !- Space Name
  Outdoors,                               !- Outside Boundary Condition
  ,                                       !- Outside Boundary Condition Object
  SunExposed,                             !- Sun Exposure
  WindExposed,                            !- Wind Exposure
  ,                                       !- View Factor to Ground
  ,                                       !- Number of Vertices
  -4.24668129729747, -87.006458967371, 1.24875, !- X,Y,Z Vertex 1 {m}
  -4.24668129729747, -87.006458967371, 0, !- X,Y,Z Vertex 2 {m}
  3.35774705809157, -79.402030611982, 0,  !- X,Y,Z Vertex 3 {m}
  3.35774705809157, -79.402030611982, 1.24875; !- X,Y,Z Vertex 4 {m}

OS:Surface,
  {8fe051f9-99c5-4c41-b942-896256cc0f66}, !- Handle
  Surface 13,                             !- Name
  Wall,                                   !- Surface Type
  ,                                       !- Construction Name
  {bb004475-1bf8-4aad-8aab-ca218f745c1f}, !- Space Name
  Outdoors,                               !- Outside Boundary Condition
  ,                                       !- Outside Boundary Condition Object
  SunExposed,                             !- Sun Exposure
  WindExposed,                            !- Wind Exposure
  ,                                       !- View Factor to Ground
  ,                                       !- Number of Vertices
  -11.8511096526865, -94.61088732276, 1.24875, !- X,Y,Z Vertex 1 {m}
  -11.8511096526865, -94.61088732276, 0,  !- X,Y,Z Vertex 2 {m}
  -4.24668129729748, -87.006458967371, 0, !- X,Y,Z Vertex 3 {m}
  -4.24668129729748, -87.006458967371, 1.24875; !- X,Y,Z Vertex 4 {m}

OS:Surface,
  {ab1f8f7f-f0e8-494b-b61f-68aea1330abd}, !- Handle
  Surface 14,                             !- Name
  Wall,                                   !- Surface Type
  ,                                       !- Construction Name
  {bb004475-1bf8-4aad-8aab-ca218f745c1f}, !- Space Name
  Outdoors,                               !- Outside Boundary Condition
  ,                                       !- Outside Boundary Condition Object
  SunExposed,                             !- Sun Exposure
  WindExposed,                            !- Wind Exposure
  ,                                       !- View Factor to Ground
  ,                                       !- Number of Vertices
  -20.1270874196939, -86.3349095557527, 1.24875, !- X,Y,Z Vertex 1 {m}
  -20.1270874196939, -86.3349095557527, 0, !- X,Y,Z Vertex 2 {m}
  -11.8511096526865, -94.61088732276, 0,  !- X,Y,Z Vertex 3 {m}
  -11.8511096526865, -94.61088732276, 1.24875; !- X,Y,Z Vertex 4 {m}

OS:Surface,
  {1aeb40ff-5093-4416-ae0d-2c9cf3dfb505}, !- Handle
  Surface 15,                             !- Name
  Wall,                                   !- Surface Type
  ,                                       !- Construction Name
  {bb004475-1bf8-4aad-8aab-ca218f745c1f}, !- Space Name
  Outdoors,                               !- Outside Boundary Condition
  ,                                       !- Outside Boundary Condition Object
  SunExposed,                             !- Sun Exposure
  WindExposed,                            !- Wind Exposure
  ,                                       !- View Factor to Ground
  ,                                       !- Number of Vertices
  -28.4030651867013, -78.0589317887453, 1.24875, !- X,Y,Z Vertex 1 {m}
  -28.4030651867013, -78.0589317887453, 0, !- X,Y,Z Vertex 2 {m}
  -20.1270874196939, -86.3349095557527, 0, !- X,Y,Z Vertex 3 {m}
  -20.1270874196939, -86.3349095557527, 1.24875; !- X,Y,Z Vertex 4 {m}

OS:Surface,
  {77265250-6d8a-4c5b-a498-1040c723b87e}, !- Handle
  Surface 16,                             !- Name
  Wall,                                   !- Surface Type
  ,                                       !- Construction Name
  {bb004475-1bf8-4aad-8aab-ca218f745c1f}, !- Space Name
  Outdoors,                               !- Outside Boundary Condition
  ,                                       !- Outside Boundary Condition Object
  SunExposed,                             !- Sun Exposure
  WindExposed,                            !- Wind Exposure
  ,                                       !- View Factor to Ground
  ,                                       !- Number of Vertices
  -36.6790429537086, -69.782954021738, 1.24875, !- X,Y,Z Vertex 1 {m}
  -36.6790429537086, -69.782954021738, 0, !- X,Y,Z Vertex 2 {m}
  -28.4030651867013, -78.0589317887453, 0, !- X,Y,Z Vertex 3 {m}
  -28.4030651867013, -78.0589317887453, 1.24875; !- X,Y,Z Vertex 4 {m}

OS:Surface,
  {e0f1d702-c32d-4f58-bf98-6842817588a1}, !- Handle
  Surface 17,                             !- Name
  Wall,                                   !- Surface Type
  ,                                       !- Construction Name
  {bb004475-1bf8-4aad-8aab-ca218f745c1f}, !- Space Name
  Outdoors,                               !- Outside Boundary Condition
  ,                                       !- Outside Boundary Condition Object
  SunExposed,                             !- Sun Exposure
  WindExposed,                            !- Wind Exposure
  ,                                       !- View Factor to Ground
  ,                                       !- Number of Vertices
  -44.955020720716, -61.5069762547306, 1.24875, !- X,Y,Z Vertex 1 {m}
  -44.955020720716, -61.5069762547306, 0, !- X,Y,Z Vertex 2 {m}
  -36.6790429537086, -69.782954021738, 0, !- X,Y,Z Vertex 3 {m}
  -36.6790429537086, -69.782954021738, 1.24875; !- X,Y,Z Vertex 4 {m}

OS:Surface,
  {70e70c08-13d7-4613-8ff1-62a7bdce181b}, !- Handle
  Surface 18,                             !- Name
  Wall,                                   !- Surface Type
  ,                                       !- Construction Name
  {bb004475-1bf8-4aad-8aab-ca218f745c1f}, !- Space Name
  Outdoors,                               !- Outside Boundary Condition
  ,                                       !- Outside Boundary Condition Object
  SunExposed,                             !- Sun Exposure
  WindExposed,                            !- Wind Exposure
  ,                                       !- View Factor to Ground
  ,                                       !- Number of Vertices
  -53.2309984877233, -53.2309984877233, 1.24875, !- X,Y,Z Vertex 1 {m}
  -53.2309984877233, -53.2309984877233, 0, !- X,Y,Z Vertex 2 {m}
  -44.955020720716, -61.5069762547306, 0, !- X,Y,Z Vertex 3 {m}
  -44.955020720716, -61.5069762547306, 1.24875; !- X,Y,Z Vertex 4 {m}

OS:Surface,
  {565e71f4-b1e2-49cc-902d-62793133eb34}, !- Handle
  Surface 19,                             !- Name
  Wall,                                   !- Surface Type
  ,                                       !- Construction Name
  {bb004475-1bf8-4aad-8aab-ca218f745c1f}, !- Space Name
  Outdoors,                               !- Outside Boundary Condition
  ,                                       !- Outside Boundary Condition Object
  SunExposed,                             !- Sun Exposure
  WindExposed,                            !- Wind Exposure
  ,                                       !- View Factor to Ground
  ,                                       !- Number of Vertices
  -45.6265701323343, -45.6265701323343, 1.24875, !- X,Y,Z Vertex 1 {m}
  -45.6265701323343, -45.6265701323343, 0, !- X,Y,Z Vertex 2 {m}
  -53.2309984877233, -53.2309984877233, 0, !- X,Y,Z Vertex 3 {m}
  -53.2309984877233, -53.2309984877233, 1.24875; !- X,Y,Z Vertex 4 {m}

OS:Surface,
  {ab072185-9f28-4b6c-b791-be5653484189}, !- Handle
  Surface 20,                             !- Name
  Wall,                                   !- Surface Type
  ,                                       !- Construction Name
  {bb004475-1bf8-4aad-8aab-ca218f745c1f}, !- Space Name
  Outdoors,                               !- Outside Boundary Condition
  ,                                       !- Outside Boundary Condition Object
  SunExposed,                             !- Sun Exposure
  WindExposed,                            !- Wind Exposure
  ,                                       !- View Factor to Ground
  ,                                       !- Number of Vertices
  -38.0221417769452, -38.0221417769452, 1.24875, !- X,Y,Z Vertex 1 {m}
  -38.0221417769452, -38.0221417769452, 0, !- X,Y,Z Vertex 2 {m}
  -45.6265701323343, -45.6265701323343, 0, !- X,Y,Z Vertex 3 {m}
  -45.6265701323343, -45.6265701323343, 1.24875; !- X,Y,Z Vertex 4 {m}

OS:Surface,
  {b6791ae0-b7ef-4d83-83aa-4db12e000ad4}, !- Handle
  Surface 21,                             !- Name
  Wall,                                   !- Surface Type
  ,                                       !- Construction Name
  {bb004475-1bf8-4aad-8aab-ca218f745c1f}, !- Space Name
  Outdoors,                               !- Outside Boundary Condition
  ,                                       !- Outside Boundary Condition Object
  SunExposed,                             !- Sun Exposure
  WindExposed,                            !- Wind Exposure
  ,                                       !- View Factor to Ground
  ,                                       !- Number of Vertices
  -30.4177134215562, -30.4177134215561, 1.24875, !- X,Y,Z Vertex 1 {m}
  -30.4177134215562, -30.4177134215561, 0, !- X,Y,Z Vertex 2 {m}
  -38.0221417769452, -38.0221417769452, 0, !- X,Y,Z Vertex 3 {m}
  -38.0221417769452, -38.0221417769452, 1.24875; !- X,Y,Z Vertex 4 {m}

OS:Surface,
  {659c6366-4dd3-49ed-af74-08af44005103}, !- Handle
  Surface 22,                             !- Name
  Wall,                                   !- Surface Type
  ,                                       !- Construction Name
  {bb004475-1bf8-4aad-8aab-ca218f745c1f}, !- Space Name
  Outdoors,                               !- Outside Boundary Condition
  ,                                       !- Outside Boundary Condition Object
  SunExposed,                             !- Sun Exposure
  WindExposed,                            !- Wind Exposure
  ,                                       !- View Factor to Ground
  ,                                       !- Number of Vertices
  -22.8132850661672, -22.8132850661671, 1.24875, !- X,Y,Z Vertex 1 {m}
  -22.8132850661672, -22.8132850661671, 0, !- X,Y,Z Vertex 2 {m}
  -30.4177134215562, -30.4177134215561, 0, !- X,Y,Z Vertex 3 {m}
  -30.4177134215562, -30.4177134215561, 1.24875; !- X,Y,Z Vertex 4 {m}

OS:Surface,
  {83b8f76f-1ac9-4c2a-8dba-bc6fc4c1f147}, !- Handle
  Surface 23,                             !- Name
  Wall,                                   !- Surface Type
  ,                                       !- Construction Name
  {bb004475-1bf8-4aad-8aab-ca218f745c1f}, !- Space Name
  Outdoors,                               !- Outside Boundary Condition
  ,                                       !- Outside Boundary Condition Object
  SunExposed,                             !- Sun Exposure
  WindExposed,                            !- Wind Exposure
  ,                                       !- View Factor to Ground
  ,                                       !- Number of Vertices
  -15.2088567107781, -15.2088567107781, 1.24875, !- X,Y,Z Vertex 1 {m}
  -15.2088567107781, -15.2088567107781, 0, !- X,Y,Z Vertex 2 {m}
  -22.8132850661672, -22.8132850661671, 0, !- X,Y,Z Vertex 3 {m}
  -22.8132850661672, -22.8132850661671, 1.24875; !- X,Y,Z Vertex 4 {m}

OS:Surface,
  {c89f78e3-d78e-43ac-b850-2e08ca6d3dbb}, !- Handle
  Surface 24,                             !- Name
  Wall,                                   !- Surface Type
  ,                                       !- Construction Name
  {bb004475-1bf8-4aad-8aab-ca218f745c1f}, !- Space Name
  Outdoors,                               !- Outside Boundary Condition
  ,                                       !- Outside Boundary Condition Object
  SunExposed,                             !- Sun Exposure
  WindExposed,                            !- Wind Exposure
  ,                                       !- View Factor to Ground
  ,                                       !- Number of Vertices
  -7.60442835538904, -7.60442835538903, 1.24875, !- X,Y,Z Vertex 1 {m}
  -7.60442835538904, -7.60442835538903, 0, !- X,Y,Z Vertex 2 {m}
  -15.2088567107781, -15.2088567107781, 0, !- X,Y,Z Vertex 3 {m}
  -15.2088567107781, -15.2088567107781, 1.24875; !- X,Y,Z Vertex 4 {m}

OS:Surface,
  {8eb75f0c-3349-49cc-9277-f167ebf3062a}, !- Handle
  Surface 25,                             !- Name
  Wall,                                   !- Surface Type
  ,                                       !- Construction Name
  {bb004475-1bf8-4aad-8aab-ca218f745c1f}, !- Space Name
  Outdoors,                               !- Outside Boundary Condition
  ,                                       !- Outside Boundary Condition Object
  SunExposed,                             !- Sun Exposure
  WindExposed,                            !- Wind Exposure
  ,                                       !- View Factor to Ground
  ,                                       !- Number of Vertices
  -3.11140144585472e-15, -2.79748432436497e-14, 1.24875, !- X,Y,Z Vertex 1 {m}
  -3.11140144585472e-15, -2.79748432436497e-14, 0, !- X,Y,Z Vertex 2 {m}
  -7.60442835538904, -7.60442835538903, 0, !- X,Y,Z Vertex 3 {m}
  -7.60442835538904, -7.60442835538903, 1.24875; !- X,Y,Z Vertex 4 {m}

OS:Surface,
  {7be18fe5-8276-4238-a555-4c9a004c5880}, !- Handle
  Surface 26,                             !- Name
  RoofCeiling,                            !- Surface Type
  ,                                       !- Construction Name
  {bb004475-1bf8-4aad-8aab-ca218f745c1f}, !- Space Name
  Surface,                                !- Outside Boundary Condition
  {969a08ec-3b80-4347-93df-4bc901f277d4}, !- Outside Boundary Condition Object
  NoSun,                                  !- Sun Exposure
  NoWind,                                 !- Wind Exposure
  ,                                       !- View Factor to Ground
  ,                                       !- Number of Vertices
  -11.8511096526865, -94.61088732276, 1.24875, !- X,Y,Z Vertex 1 {m}
  41.3798888350367, -41.3798888350368, 1.24875, !- X,Y,Z Vertex 2 {m}
  -2.66453525910038e-15, -2.8421709430404e-14, 1.24875, !- X,Y,Z Vertex 3 {m}
  -53.2309984877233, -53.2309984877233, 1.24875; !- X,Y,Z Vertex 4 {m}

OS:BuildingStory,
  {3c1f45ab-b2fe-44fe-b1c6-040143bd11fb}, !- Handle
  Rectangle:Story 2,                      !- Name
  1.24875,                                !- Nominal Z Coordinate {m}
  0.8325,                                 !- Nominal Floor to Floor Height {m}
  ,                                       !- Default Construction Set Name
  ,                                       !- Default Schedule Set Name
  {865dd3a8-6f53-4e2d-bfbb-c394a9445ea8}; !- Group Rendering Name

OS:Space,
  {11332747-8245-4ed9-a752-4a5b1963714a}, !- Handle
  0 Core Space 1,                         !- Name
  ,                                       !- Space Type Name
  ,                                       !- Default Construction Set Name
  ,                                       !- Default Schedule Set Name
  -0,                                     !- Direction of Relative North {deg}
  5.92555482634326,                       !- X Origin {m}
  47.30544366138,                         !- Y Origin {m}
  1.24875,                                !- Z Origin {m}
  {3c1f45ab-b2fe-44fe-b1c6-040143bd11fb}, !- Building Story Name
  {286fec66-7e65-4046-b072-645083276182}; !- Thermal Zone Name

OS:Surface,
  {969a08ec-3b80-4347-93df-4bc901f277d4}, !- Handle
  Surface 27,                             !- Name
  Floor,                                  !- Surface Type
  ,                                       !- Construction Name
  {11332747-8245-4ed9-a752-4a5b1963714a}, !- Space Name
  Surface,                                !- Outside Boundary Condition
  {7be18fe5-8276-4238-a555-4c9a004c5880}, !- Outside Boundary Condition Object
  NoSun,                                  !- Sun Exposure
  NoWind,                                 !- Wind Exposure
  ,                                       !- View Factor to Ground
  ,                                       !- Number of Vertices
  -2.66453525910038e-15, -2.8421709430404e-14, 0, !- X,Y,Z Vertex 1 {m}
  41.3798888350367, -41.3798888350368, 0, !- X,Y,Z Vertex 2 {m}
  -11.8511096526865, -94.61088732276, 0,  !- X,Y,Z Vertex 3 {m}
  -53.2309984877233, -53.2309984877233, 0; !- X,Y,Z Vertex 4 {m}

OS:Surface,
  {a75fc549-6226-4dc9-9596-5c9c461b4e18}, !- Handle
  Surface 28,                             !- Name
  Wall,                                   !- Surface Type
  ,                                       !- Construction Name
  {11332747-8245-4ed9-a752-4a5b1963714a}, !- Space Name
  Outdoors,                               !- Outside Boundary Condition
  ,                                       !- Outside Boundary Condition Object
  SunExposed,                             !- Sun Exposure
  WindExposed,                            !- Wind Exposure
  ,                                       !- View Factor to Ground
  ,                                       !- Number of Vertices
  8.27597776700734, -8.27597776700733, 0.8325, !- X,Y,Z Vertex 1 {m}
  8.27597776700734, -8.27597776700733, 0, !- X,Y,Z Vertex 2 {m}
  -2.58497946976735e-15, -2.8342153641071e-14, 0, !- X,Y,Z Vertex 3 {m}
  -2.58497946976735e-15, -2.8342153641071e-14, 0.8325; !- X,Y,Z Vertex 4 {m}

OS:Surface,
  {6615fbb6-e8fe-4dcd-85a2-88a6dd545a09}, !- Handle
  Surface 29,                             !- Name
  Wall,                                   !- Surface Type
  ,                                       !- Construction Name
  {11332747-8245-4ed9-a752-4a5b1963714a}, !- Space Name
  Outdoors,                               !- Outside Boundary Condition
  ,                                       !- Outside Boundary Condition Object
  SunExposed,                             !- Sun Exposure
  WindExposed,                            !- Wind Exposure