
OS:Version,
  {3597fcf5-4505-453b-934f-d97a6d60db6c}, !- Handle
  1.7.0;                                  !- Version Identifier

OS:BuildingStory,
  {8b85f6ea-0508-4970-98a4-74afa3b3c79c}, !- Handle
  Story 1,                                !- Name
  0.1,                                    !- Nominal Z Coordinate {m}
  0.8325,                                 !- Nominal Floor to Floor Height {m}
  ,                                       !- Default Construction Set Name
  ,                                       !- Default Schedule Set Name
  ;                                       !- Group Rendering Name

OS:Space,
  {82521428-3a4f-4b15-85f4-3b001df39a47}, !- Handle
  0 Core Space,                           !- Name
  ,                                       !- Space Type Name
  ,                                       !- Default Construction Set Name
  ,                                       !- Default Schedule Set Name
  -0,                                     !- Direction of Relative North {deg}
  75.0169584160808,                       !- X Origin {m}
  221.487057071062,                       !- Y Origin {m}
  0.1,                                    !- Z Origin {m}
  {8b85f6ea-0508-4970-98a4-74afa3b3c79c}, !- Building Story Name
  {55946fd4-137b-4fd7-b512-51adb80f053c}; !- Thermal Zone Name

OS:Surface,
  {5218b0a9-5318-44ac-8916-ca1440611de2}, !- Handle
  Surface 1,                              !- Name
  Floor,                                  !- Surface Type
  ,                                       !- Construction Name
  {82521428-3a4f-4b15-85f4-3b001df39a47}, !- Space Name
  Ground,                                 !- Outside Boundary Condition
  ,                                       !- Outside Boundary Condition Object
  NoSun,                                  !- Sun Exposure
  NoWind,                                 !- Wind Exposure
  ,                                       !- View Factor to Ground
  ,                                       !- Number of Vertices
  -1.4210854715202e-14, -2.8421709430404e-13, 0, !- X,Y,Z Vertex 1 {m}
  8.27597776700739, -8.27597776700728, 0, !- X,Y,Z Vertex 2 {m}
  16.5519555340147, -16.5519555340143, 0, !- X,Y,Z Vertex 3 {m}
  24.8279333010221, -24.8279333010223, 0, !- X,Y,Z Vertex 4 {m}
  33.1039110680292, -33.1039110680293, 0, !- X,Y,Z Vertex 5 {m}
  41.3798888350372, -41.3798888350363, 0, !- X,Y,Z Vertex 6 {m}
  33.7744503271032, -48.9853273429703, 0, !- X,Y,Z Vertex 7 {m}
  26.1690118191692, -56.5907658509043, 0, !- X,Y,Z Vertex 8 {m}
  18.563573311236, -64.1962043588373, 0,  !- X,Y,Z Vertex 9 {m}
  10.9581348033024, -71.8016428667713, 0, !- X,Y,Z Vertex 10 {m}
  3.35269629536879, -79.4070813747043, 0, !- X,Y,Z Vertex 11 {m}
  -4.25274221256481, -87.0125198826383, 0, !- X,Y,Z Vertex 12 {m}
  -11.8581807204984, -94.6179583905723, 0, !- X,Y,Z Vertex 13 {m}
  -20.1341584875057, -86.3419806235643, 0, !- X,Y,Z Vertex 14 {m}
  -28.4101362545131, -78.0660028565573, 0, !- X,Y,Z Vertex 15 {m}
  -36.6861140215204, -69.7900250895503, 0, !- X,Y,Z Vertex 16 {m}
  -44.9620917885278, -61.5140473225423, 0, !- X,Y,Z Vertex 17 {m}
  -53.2380695555351, -53.2380695555353, 0, !- X,Y,Z Vertex 18 {m}
  -45.6326310476015, -45.6326310476013, 0, !- X,Y,Z Vertex 19 {m}
  -38.027192539668, -38.0271925396683, 0, !- X,Y,Z Vertex 20 {m}
  -30.4217540317344, -30.4217540317343, 0, !- X,Y,Z Vertex 21 {m}
  -22.8163155238008, -22.8163155238013, 0, !- X,Y,Z Vertex 22 {m}
  -15.2108770158672, -15.2108770158673, 0, !- X,Y,Z Vertex 23 {m}
  -7.60543850793361, -7.60543850793329, 0; !- X,Y,Z Vertex 24 {m}

OS:Surface,
  {c24cc962-0b25-4d57-93d5-660295b33c0a}, !- Handle
  Surface 2,                              !- Name
  Wall,                                   !- Surface Type
  ,                                       !- Construction Name
  {82521428-3a4f-4b15-85f4-3b001df39a47}, !- Space Name
  Outdoors,                               !- Outside Boundary Condition
  ,                                       !- Outside Boundary Condition Object
  SunExposed,                             !- Sun Exposure
  WindExposed,                            !- Wind Exposure
  ,                                       !- View Factor to Ground
  ,                                       !- Number of Vertices
  8.27597776700739, -8.27597776700728, 0.8325, !- X,Y,Z Vertex 1 {m}
  8.27597776700739, -8.27597776700728, 0, !- X,Y,Z Vertex 2 {m}
  -1.4210854715202e-14, -2.8421709430404e-13, 0, !- X,Y,Z Vertex 3 {m}
  -1.4210854715202e-14, -2.8421709430404e-13, 0.8325; !- X,Y,Z Vertex 4 {m}

OS:Surface,
  {98006df4-3a80-4ea1-b8a6-e7940b060506}, !- Handle
  Surface 3,                              !- Name
  Wall,                                   !- Surface Type
  ,                                       !- Construction Name
  {82521428-3a4f-4b15-85f4-3b001df39a47}, !- Space Name
  Outdoors,                               !- Outside Boundary Condition
  ,                                       !- Outside Boundary Condition Object
  SunExposed,                             !- Sun Exposure
  WindExposed,                            !- Wind Exposure
  ,                                       !- View Factor to Ground
  ,                                       !- Number of Vertices
  16.5519555340147, -16.5519555340143, 0.8325, !- X,Y,Z Vertex 1 {m}
  16.5519555340147, -16.5519555340143, 0, !- X,Y,Z Vertex 2 {m}
  8.27597776700739, -8.27597776700728, 0, !- X,Y,Z Vertex 3 {m}
  8.27597776700739, -8.27597776700728, 0.8325; !- X,Y,Z Vertex 4 {m}

OS:Surface,
  {ed3875d3-55f1-4ba9-9976-7de2d40db5f7}, !- Handle
  Surface 4,                              !- Name
  Wall,                                   !- Surface Type
  ,                                       !- Construction Name
  {82521428-3a4f-4b15-85f4-3b001df39a47}, !- Space Name
  Outdoors,                               !- Outside Boundary Condition
  ,                                       !- Outside Boundary Condition Object
  SunExposed,                             !- Sun Exposure
  WindExposed,                            !- Wind Exposure
  ,                                       !- View Factor to Ground
  ,                                       !- Number of Vertices
  24.8279333010221, -24.8279333010223, 0.8325, !- X,Y,Z Vertex 1 {m}
  24.8279333010221, -24.8279333010223, 0, !- X,Y,Z Vertex 2 {m}
  16.5519555340147, -16.5519555340143, 0, !- X,Y,Z Vertex 3 {m}
  16.5519555340147, -16.5519555340143, 0.8325; !- X,Y,Z Vertex 4 {m}

OS:Surface,
  {cc492a70-9807-42d2-bfdf-574908bb05f3}, !- Handle
  Surface 5,                              !- Name
  Wall,                                   !- Surface Type
  ,                                       !- Construction Name
  {82521428-3a4f-4b15-85f4-3b001df39a47}, !- Space Name
  Outdoors,                               !- Outside Boundary Condition
  ,                                       !- Outside Boundary Condition Object
  SunExposed,                             !- Sun Exposure
  WindExposed,                            !- Wind Exposure
  ,                                       !- View Factor to Ground
  ,                                       !- Number of Vertices
  33.1039110680292, -33.1039110680293, 0.8325, !- X,Y,Z Vertex 1 {m}
  33.1039110680292, -33.1039110680293, 0, !- X,Y,Z Vertex 2 {m}
  24.8279333010221, -24.8279333010223, 0, !- X,Y,Z Vertex 3 {m}
  24.8279333010221, -24.8279333010223, 0.8325; !- X,Y,Z Vertex 4 {m}

OS:Surface,
  {1597ddbb-28b6-450d-8069-c14d4f686795}, !- Handle
  Surface 6,                              !- Name
  Wall,                                   !- Surface Type
  ,                                       !- Construction Name
  {82521428-3a4f-4b15-85f4-3b001df39a47}, !- Space Name
  Outdoors,                               !- Outside Boundary Condition
  ,                                       !- Outside Boundary Condition Object
  SunExposed,                             !- Sun Exposure
  WindExposed,                            !- Wind Exposure
  ,                                       !- View Factor to Ground
  ,                                       !- Number of Vertices
  41.3798888350372, -41.3798888350363, 0.8325, !- X,Y,Z Vertex 1 {m}
  41.3798888350372, -41.3798888350363, 0, !- X,Y,Z Vertex 2 {m}
  33.1039110680292, -33.1039110680293, 0, !- X,Y,Z Vertex 3 {m}
  33.1039110680292, -33.1039110680293, 0.8325; !- X,Y,Z Vertex 4 {m}

OS:Surface,
  {1231a0f6-747a-4c47-ae46-f6632013c6a5}, !- Handle
  Surface 7,                              !- Name
  Wall,                                   !- Surface Type
  ,                                       !- Construction Name
  {82521428-3a4f-4b15-85f4-3b001df39a47}, !- Space Name
  Outdoors,                               !- Outside Boundary Condition
  ,                                       !- Outside Boundary Condition Object
  SunExposed,                             !- Sun Exposure
  WindExposed,                            !- Wind Exposure
  ,                                       !- View Factor to Ground
  ,                                       !- Number of Vertices
  33.7744503271032, -48.9853273429703, 0.8325, !- X,Y,Z Vertex 1 {m}
  33.7744503271032, -48.9853273429703, 0, !- X,Y,Z Vertex 2 {m}
  41.3798888350372, -41.3798888350363, 0, !- X,Y,Z Vertex 3 {m}
  41.3798888350372, -41.3798888350363, 0.8325; !- X,Y,Z Vertex 4 {m}

OS:Surface,
  {d7602aa5-ed12-48d5-ad2a-02b95745facb}, !- Handle
  Surface 8,                              !- Name
  Wall,                                   !- Surface Type
  ,                                       !- Construction Name
  {82521428-3a4f-4b15-85f4-3b001df39a47}, !- Space Name
  Outdoors,                               !- Outside Boundary Condition
  ,                                       !- Outside Boundary Condition Object
  SunExposed,                             !- Sun Exposure
  WindExposed,                            !- Wind Exposure
  ,                                       !- View Factor to Ground
  ,                                       !- Number of Vertices
  26.1690118191692, -56.5907658509043, 0.8325, !- X,Y,Z Vertex 1 {m}
  26.1690118191692, -56.5907658509043, 0, !- X,Y,Z Vertex 2 {m}
  33.7744503271032, -48.9853273429703, 0, !- X,Y,Z Vertex 3 {m}
  33.7744503271032, -48.9853273429703, 0.8325; !- X,Y,Z Vertex 4 {m}

OS:Surface,
  {6cbdee70-efa4-4806-a671-4fc8cce3f5c4}, !- Handle
  Surface 9,                              !- Name
  Wall,                                   !- Surface Type
  ,                                       !- Construction Name
  {82521428-3a4f-4b15-85f4-3b001df39a47}, !- Space Name
  Outdoors,                               !- Outside Boundary Condition
  ,                                       !- Outside Boundary Condition Object
  SunExposed,                             !- Sun Exposure
  WindExposed,                            !- Wind Exposure
  ,                                       !- View Factor to Ground
  ,                                       !- Number of Vertices
  18.563573311236, -64.1962043588373, 0.8325, !- X,Y,Z Vertex 1 {m}
  18.563573311236, -64.1962043588373, 0,  !- X,Y,Z Vertex 2 {m}
  26.1690118191692, -56.5907658509043, 0, !- X,Y,Z Vertex 3 {m}
  26.1690118191692, -56.5907658509043, 0.8325; !- X,Y,Z Vertex 4 {m}

OS:Surface,
  {ee759cde-133c-45ba-8f5d-1ec7358d7c91}, !- Handle
  Surface 10,                             !- Name
  Wall,                                   !- Surface Type
  ,                                       !- Construction Name
  {82521428-3a4f-4b15-85f4-3b001df39a47}, !- Space Name
  Outdoors,                               !- Outside Boundary Condition
  ,                                       !- Outside Boundary Condition Object
  SunExposed,                             !- Sun Exposure
  WindExposed,                            !- Wind Exposure
  ,                                       !- View Factor to Ground
  ,                                       !- Number of Vertices
  10.9581348033024, -71.8016428667713, 0.8325, !- X,Y,Z Vertex 1 {m}
  10.9581348033024, -71.8016428667713, 0, !- X,Y,Z Vertex 2 {m}
  18.563573311236, -64.1962043588373, 0,  !- X,Y,Z Vertex 3 {m}
  18.563573311236, -64.1962043588373, 0.8325; !- X,Y,Z Vertex 4 {m}

OS:Surface,
  {69e3bb0e-16a0-4a1c-b146-8f938ff52567}, !- Handle
  Surface 11,                             !- Name
  Wall,                                   !- Surface Type
  ,                                       !- Construction Name
  {82521428-3a4f-4b15-85f4-3b001df39a47}, !- Space Name
  Outdoors,                               !- Outside Boundary Condition
  ,                                       !- Outside Boundary Condition Object
  SunExposed,                             !- Sun Exposure
  WindExposed,                            !- Wind Exposure
  ,                                       !- View Factor to Ground
  ,                                       !- Number of Vertices
  3.35269629536879, -79.4070813747043, 0.8325, !- X,Y,Z Vertex 1 {m}
  3.35269629536879, -79.4070813747043, 0, !- X,Y,Z Vertex 2 {m}
  10.9581348033024, -71.8016428667713, 0, !- X,Y,Z Vertex 3 {m}
  10.9581348033024, -71.8016428667713, 0.8325; !- X,Y,Z Vertex 4 {m}

OS:Surface,
  {0102e545-d5c5-4564-8a6e-59c96756a656}, !- Handle
  Surface 12,                             !- Name
  Wall,                                   !- Surface Type
  ,                                       !- Construction Name
  {82521428-3a4f-4b15-85f4-3b001df39a47}, !- Space Name
  Outdoors,                               !- Outside Boundary Condition
  ,                                       !- Outside Boundary Condition Object
  SunExposed,                             !- Sun Exposure
  WindExposed,                            !- Wind Exposure
  ,                                       !- View Factor to Ground
  ,                                       !- Number of Vertices
  -4.25274221256481, -87.0125198826383, 0.8325, !- X,Y,Z Vertex 1 {m}
  -4.25274221256481, -87.0125198826383, 0, !- X,Y,Z Vertex 2 {m}
  3.35269629536879, -79.4070813747043, 0, !- X,Y,Z Vertex 3 {m}
  3.35269629536879, -79.4070813747043, 0.8325; !- X,Y,Z Vertex 4 {m}

OS:Surface,
  {e1921c0b-9861-4b88-9d5b-335f3d4cccb4}, !- Handle
  Surface 13,                             !- Name
  Wall,                                   !- Surface Type
  ,                                       !- Construction Name
  {82521428-3a4f-4b15-85f4-3b001df39a47}, !- Space Name
  Outdoors,                               !- Outside Boundary Condition
  ,                                       !- Outside Boundary Condition Object
  SunExposed,                             !- Sun Exposure
  WindExposed,                            !- Wind Exposure
  ,                                       !- View Factor to Ground
  ,                                       !- Number of Vertices
  -11.8581807204984, -94.6179583905723, 0.8325, !- X,Y,Z Vertex 1 {m}
  -11.8581807204984, -94.6179583905723, 0, !- X,Y,Z Vertex 2 {m}
  -4.25274221256481, -87.0125198826383, 0, !- X,Y,Z Vertex 3 {m}
  -4.25274221256481, -87.0125198826383, 0.8325; !- X,Y,Z Vertex 4 {m}

OS:Surface,
  {bc80d7d2-a3ab-4e71-a0f6-ad19dc9c4f73}, !- Handle
  Surface 14,                             !- Name
  Wall,                                   !- Surface Type
  ,                                       !- Construction Name
  {82521428-3a4f-4b15-85f4-3b001df39a47}, !- Space Name
  Outdoors,                               !- Outside Boundary Condition
  ,                                       !- Outside Boundary Condition Object
  SunExposed,                             !- Sun Exposure
  WindExposed,                            !- Wind Exposure
  ,                                       !- View Factor to Ground
  ,                                       !- Number of Vertices
  -20.1341584875057, -86.3419806235643, 0.8325, !- X,Y,Z Vertex 1 {m}
  -20.1341584875057, -86.3419806235643, 0, !- X,Y,Z Vertex 2 {m}
  -11.8581807204984, -94.6179583905723, 0, !- X,Y,Z Vertex 3 {m}
  -11.8581807204984, -94.6179583905723, 0.8325; !- X,Y,Z Vertex 4 {m}

OS:Surface,
  {ca6ebfe7-3ee3-488e-b923-d13eb4e8441c}, !- Handle
  Surface 15,                             !- Name
  Wall,                                   !- Surface Type
  ,                                       !- Construction Name
  {82521428-3a4f-4b15-85f4-3b001df39a47}, !- Space Name
  Outdoors,                               !- Outside Boundary Condition
  ,                                       !- Outside Boundary Condition Object
  SunExposed,                             !- Sun Exposure
  WindExposed,                            !- Wind Exposure
  ,                                       !- View Factor to Ground
  ,                                       !- Number of Vertices
  -28.4101362545131, -78.0660028565573, 0.8325, !- X,Y,Z Vertex 1 {m}
  -28.4101362545131, -78.0660028565573, 0, !- X,Y,Z Vertex 2 {m}
  -20.1341584875057, -86.3419806235643, 0, !- X,Y,Z Vertex 3 {m}
  -20.1341584875057, -86.3419806235643, 0.8325; !- X,Y,Z Vertex 4 {m}

OS:Surface,
  {390cadb2-0982-4bde-ad92-812e58673c39}, !- Handle
  Surface 16,                             !- Name
  Wall,                                   !- Surface Type
  ,                                       !- Construction Name
  {82521428-3a4f-4b15-85f4-3b001df39a47}, !- Space Name
  Outdoors,                               !- Outside Boundary Condition
  ,                                       !- Outside Boundary Condition Object
  SunExposed,                             !- Sun Exposure
  WindExposed,                            !- Wind Exposure
  ,                                       !- View Factor to Ground
  ,                                       !- Number of Vertices
  -36.6861140215204, -69.7900250895503, 0.8325, !- X,Y,Z Vertex 1 {m}
  -36.6861140215204, -69.7900250895503, 0, !- X,Y,Z Vertex 2 {m}
  -28.4101362545131, -78.0660028565573, 0, !- X,Y,Z Vertex 3 {m}
  -28.4101362545131, -78.0660028565573, 0.8325; !- X,Y,Z Vertex 4 {m}

OS:Surface,
  {eb67a1e0-e616-4bb8-9e9c-9d6508a85410}, !- Handle
  Surface 17,                             !- Name
  Wall,                                   !- Surface Type
  ,                                       !- Construction Name
  {82521428-3a4f-4b15-85f4-3b001df39a47}, !- Space Name
  Outdoors,                               !- Outside Boundary Condition
  ,                                       !- Outside Boundary Condition Object
  SunExposed,                             !- Sun Exposure
  WindExposed,                            !- Wind Exposure
  ,                                       !- View Factor to Ground
  ,                                       !- Number of Vertices
  -44.9620917885278, -61.5140473225423, 0.8325, !- X,Y,Z Vertex 1 {m}
  -44.9620917885278, -61.5140473225423, 0, !- X,Y,Z Vertex 2 {m}
  -36.6861140215204, -69.7900250895503, 0, !- X,Y,Z Vertex 3 {m}
  -36.6861140215204, -69.7900250895503, 0.8325; !- X,Y,Z Vertex 4 {m}

OS:Surface,
  {6eee591a-d535-44a5-9ed3-2919bead0e98}, !- Handle
  Surface 18,                             !- Name
  Wall,                                   !- Surface Type
  ,                                       !- Construction Name
  {82521428-3a4f-4b15-85f4-3b001df39a47}, !- Space Name
  Outdoors,                               !- Outside Boundary Condition
  ,                                       !- Outside Boundary Condition Object
  SunExposed,                             !- Sun Exposure
  WindExposed,                            !- Wind Exposure
  ,                                       !- View Factor to Ground
  ,                                       !- Number of Vertices
  -53.2380695555351, -53.2380695555353, 0.8325, !- X,Y,Z Vertex 1 {m}
  -53.2380695555351, -53.2380695555353, 0, !- X,Y,Z Vertex 2 {m}
  -44.9620917885278, -61.5140473225423, 0, !- X,Y,Z Vertex 3 {m}
  -44.9620917885278, -61.5140473225423, 0.8325; !- X,Y,Z Vertex 4 {m}

OS:Surface,
  {d97896a7-15ae-485f-a6c0-6983d542be84}, !- Handle
  Surface 19,                             !- Name
  Wall,                                   !- Surface Type
  ,                                       !- Construction Name
  {82521428-3a4f-4b15-85f4-3b001df39a47}, !- Space Name
  Outdoors,                               !- Outside Boundary Condition
  ,                                       !- Outside Boundary Condition Object
  SunExposed,                             !- Sun Exposure
  WindExposed,                            !- Wind Exposure
  ,                                       !- View Factor to Ground
  ,                                       !- Number of Vertices
  -45.6326310476015, -45.6326310476013, 0.8325, !- X,Y,Z Vertex 1 {m}
  -45.6326310476015, -45.6326310476013, 0, !- X,Y,Z Vertex 2 {m}
  -53.2380695555351, -53.2380695555353, 0, !- X,Y,Z Vertex 3 {m}
  -53.2380695555351, -53.2380695555353, 0.8325; !- X,Y,Z Vertex 4 {m}

OS:Surface,
  {78842798-4566-4e66-aa33-0b6cee9813cd}, !- Handle
  Surface 20,                             !- Name
  Wall,                                   !- Surface Type
  ,                                       !- Construction Name
  {82521428-3a4f-4b15-85f4-3b001df39a47}, !- Space Name
  Outdoors,                               !- Outside Boundary Condition
  ,                                       !- Outside Boundary Condition Object
  SunExposed,                             !- Sun Exposure
  WindExposed,                            !- Wind Exposure
  ,                                       !- View Factor to Ground
  ,                                       !- Number of Vertices
  -38.027192539668, -38.0271925396683, 0.8325, !- X,Y,Z Vertex 1 {m}
  -38.027192539668, -38.0271925396683, 0, !- X,Y,Z Vertex 2 {m}
  -45.6326310476015, -45.6326310476013, 0, !- X,Y,Z Vertex 3 {m}
  -45.6326310476015, -45.6326310476013, 0.8325; !- X,Y,Z Vertex 4 {m}

OS:Surface,
  {f1facf01-830b-4e9d-ab1e-0beb415cbdfb}, !- Handle
  Surface 21,                             !- Name
  Wall,                                   !- Surface Type
  ,                                       !- Construction Name
  {82521428-3a4f-4b15-85f4-3b001df39a47}, !- Space Name
  Outdoors,                               !- Outside Boundary Condition
  ,                                       !- Outside Boundary Condition Object
  SunExposed,                             !- Sun Exposure
  WindExposed,                            !- Wind Exposure
  ,                                       !- View Factor to Ground
  ,                                       !- Number of Vertices
  -30.4217540317344, -30.4217540317343, 0.8325, !- X,Y,Z Vertex 1 {m}
  -30.4217540317344, -30.4217540317343, 0, !- X,Y,Z Vertex 2 {m}
  -38.027192539668, -38.0271925396683, 0, !- X,Y,Z Vertex 3 {m}
  -38.027192539668, -38.0271925396683, 0.8325; !- X,Y,Z Vertex 4 {m}

OS:Surface,
  {001a230a-020f-462f-907e-576ddeeefd5d}, !- Handle
  Surface 22,                             !- Name
  Wall,                                   !- Surface Type
  ,                                       !- Construction Name
  {82521428-3a4f-4b15-85f4-3b001df39a47}, !- Space Name
  Outdoors,                               !- Outside Boundary Condition
  ,                                       !- Outside Boundary Condition Object
  SunExposed,                             !- Sun Exposure
  WindExposed,                            !- Wind Exposure
  ,                                       !- View Factor to Ground
  ,                                       !- Number of Vertices
  -22.8163155238008, -22.8163155238013, 0.8325, !- X,Y,Z Vertex 1 {m}
  -22.8163155238008, -22.8163155238013, 0, !- X,Y,Z Vertex 2 {m}
  -30.4217540317344, -30.4217540317343, 0, !- X,Y,Z Vertex 3 {m}
  -30.4217540317344, -30.4217540317343, 0.8325; !- X,Y,Z Vertex 4 {m}

OS:Surface,
  {83c215b6-696f-430d-9489-2820c1803047}, !- Handle
  Surface 23,                             !- Name
  Wall,                                   !- Surface Type
  ,                                       !- Construction Name
  {82521428-3a4f-4b15-85f4-3b001df39a47}, !- Space Name
  Outdoors,                               !- Outside Boundary Condition
  ,                                       !- Outside Boundary Condition Object
  SunExposed,                             !- Sun Exposure
  WindExposed,                            !- Wind Exposure
  ,                                       !- View Factor to Ground
  ,                                       !- Number of Vertices
  -15.2108770158672, -15.2108770158673, 0.8325, !- X,Y,Z Vertex 1 {m}
  -15.2108770158672, -15.2108770158673, 0, !- X,Y,Z Vertex 2 {m}
  -22.8163155238008, -22.8163155238013, 0, !- X,Y,Z Vertex 3 {m}
  -22.8163155238008, -22.8163155238013, 0.8325; !- X,Y,Z Vertex 4 {m}

OS:Surface,
  {908100be-8b16-46cf-adcd-7383f5ab8d4b}, !- Handle
  Surface 24,                             !- Name
  Wall,                                   !- Surface Type
  ,                                       !- Construction Name
  {82521428-3a4f-4b15-85f4-3b001df39a47}, !- Space Name
  Outdoors,                               !- Outside Boundary Condition
  ,                                       !- Outside Boundary Condition Object
  SunExposed,                             !- Sun Exposure
  WindExposed,                            !- Wind Exposure
  ,                                       !- View Factor to Ground
  ,                                       !- Number of Vertices
  -7.60543850793361, -7.60543850793329, 0.8325, !- X,Y,Z Vertex 1 {m}
  -7.60543850793361, -7.60543850793329, 0, !- X,Y,Z Vertex 2 {m}
  -15.2108770158672, -15.2108770158673, 0, !- X,Y,Z Vertex 3 {m}
  -15.2108770158672, -15.2108770158673, 0.8325; !- X,Y,Z Vertex 4 {m}

OS:Surface,
  {88d348ff-8c89-4fe6-bd44-76ec7da3d69c}, !- Handle
  Surface 25,                             !- Name
  Wall,                                   !- Surface Type
  ,                                       !- Construction Name
  {82521428-3a4f-4b15-85f4-3b001df39a47}, !- Space Name
  Outdoors,                               !- Outside Boundary Condition
  ,                                       !- Outside Boundary Condition Object
  SunExposed,                             !- Sun Exposure
  WindExposed,                            !- Wind Exposure
  ,                                       !- View Factor to Ground
  ,                                       !- Number of Vertices
  -1.4210854715202e-14, -2.8421709430404e-13, 0.8325, !- X,Y,Z Vertex 1 {m}
  -1.4210854715202e-14, -2.8421709430404e-13, 0, !- X,Y,Z Vertex 2 {m}
  -7.60543850793361, -7.60543850793329, 0, !- X,Y,Z Vertex 3 {m}
  -7.60543850793361, -7.60543850793329, 0.8325; !- X,Y,Z Vertex 4 {m}

OS:Surface,
  {7a57144c-c7fb-47c6-aa5f-150684d1c43f}, !- Handle
  Surface 26,                             !- Name
  RoofCeiling,                            !- Surface Type
  ,                                       !- Construction Name
  {82521428-3a4f-4b15-85f4-3b001df39a47}, !- Space Name
  Outdoors,                               !- Outside Boundary Condition
  ,                                       !- Outside Boundary Condition Object
  SunExposed,                             !- Sun Exposure
  WindExposed,                            !- Wind Exposure
  ,                                       !- View Factor to Ground
  ,                                       !- Number of Vertices
  -7.60543850793361, -7.60543850793329, 0.8325, !- X,Y,Z Vertex 1 {m}
  -15.2108770158672, -15.2108770158673, 0.8325, !- X,Y,Z Vertex 2 {m}
  -22.8163155238008, -22.8163155238013, 0.8325, !- X,Y,Z Vertex 3 {m}
  -30.4217540317344, -30.4217540317343, 0.8325, !- X,Y,Z Vertex 4 {m}
  -38.027192539668, -38.0271925396683, 0.8325, !- X,Y,Z Vertex 5 {m}
  -45.6326310476015, -45.6326310476013, 0.8325, !- X,Y,Z Vertex 6 {m}
  -53.2380695555351, -53.2380695555353, 0.8325, !- X,Y,Z Vertex 7 {m}
  -44.9620917885278, -61.5140473225423, 0.8325, !- X,Y,Z Vertex 8 {m}
  -36.6861140215204, -69.7900250895503, 0.8325, !- X,Y,Z Vertex 9 {m}
  -28.4101362545131, -78.0660028565573, 0.8325, !- X,Y,Z Vertex 10 {m}
  -20.1341584875057, -86.3419806235643, 0.8325, !- X,Y,Z Vertex 11 {m}
  -11.8581807204984, -94.6179583905723, 0.8325, !- X,Y,Z Vertex 12 {m}
  -4.25274221256481, -87.0125198826383, 0.8325, !- X,Y,Z Vertex 13 {m}
  3.35269629536879, -79.4070813747043, 0.8325, !- X,Y,Z Vertex 14 {m}
  10.9581348033024, -71.8016428667713, 0.8325, !- X,Y,Z Vertex 15 {m}
  18.563573311236, -64.1962043588373, 0.8325, !- X,Y,Z Vertex 16 {m}
  26.1690118191692, -56.5907658509043, 0.8325, !- X,Y,Z Vertex 17 {m}
  33.7744503271032, -48.9853273429703, 0.8325, !- X,Y,Z Vertex 18 {m}
  41.3798888350372, -41.3798888350363, 0.8325, !- X,Y,Z Vertex 19 {m}
  33.1039110680292, -33.1039110680293, 0.8325, !- X,Y,Z Vertex 20 {m}
  24.8279333010221, -24.8279333010223, 0.8325, !- X,Y,Z Vertex 21 {m}
  16.5519555340147, -16.5519555340143, 0.8325, !- X,Y,Z Vertex 22 {m}
  8.27597776700739, -8.27597776700728, 0.8325, !- X,Y,Z Vertex 23 {m}
  -1.4210854715202e-14, -2.8421709430404e-13, 0.8325; !- X,Y,Z Vertex 24 {m}

OS:BuildingStory,
  {f4180de1-cd1d-4b8f-a558-d7b1b5ae71df}, !- Handle
  Story 2,                                !- Name
  1.34875,                                !- Nominal Z Coordinate {m}
  0.8325,                                 !- Nominal Floor to Floor Height {m}
  ,                                       !- Default Construction Set Name
  ,                                       !- Default Schedule Set Name
  ;                                       !- Group Rendering Name

OS:Space,
  {fb7832cd-8255-4875-b7eb-23c4f2459173}, !- Handle
  0 Core Space 1,                         !- Name
  ,                                       !- Space Type Name
  ,                                       !- Default Construction Set Name
  ,                                       !- Default Schedule Set Name
  -0,                                     !- Direction of Relative North {deg}
  75.0169584160808,                       !- X Origin {m}
  221.487057071062,                       !- Y Origin {m}