
Version,
  8.2;                                    !- Version Identifier

LifeCycleCost:Parameters,
  {a85f34d3-773f-40b5-bfbd-fab4a93cbf85}, !- Name
  EndOfYear,                              !- Discounting Convention
  ConstantDollar,                         !- Inflation Approach
  0.03,                                   !- Real Discount Rate
  ,                                       !- Nominal Discount Rate
  ,                                       !- Inflation
  ,                                       !- Base Date Month
  2011,                                   !- Base Date Year
  ,                                       !- Service Date Month
  2011,                                   !- Service Date Year
  25,                                     !- Length of Study Period in Years
  ,                                       !- Tax rate
  None;                                   !- Depreciation Method

LifeCycleCost:UsePriceEscalation,
  U.S. Avg  Commercial-Electricity,       !- Name
  Electricity,                            !- Resource
  2011,                                   !- Escalation Start Year
  January,                                !- Escalation Start Month
  0.9838,                                 !- Year Escalation 1
  0.9730,                                 !- Year Escalation 2
  0.9632,                                 !- Year Escalation 3
  0.9611,                                 !- Year Escalation 4
  0.9571,                                 !- Year Escalation 5
  0.9553,                                 !- Year Escalation 6
  0.9539,                                 !- Year Escalation 7
  0.9521,                                 !- Year Escalation 8
  0.9546,                                 !- Year Escalation 9
  0.9550,                                 !- Year Escalation 10
  0.9553,                                 !- Year Escalation 11
  0.9564,                                 !- Year Escalation 12
  0.9575,                                 !- Year Escalation 13
  0.9596,                                 !- Year Escalation 14
  0.9618,                                 !- Year Escalation 15
  0.9614,                                 !- Year Escalation 16
  0.9618,                                 !- Year Escalation 17
  0.9618,                                 !- Year Escalation 18
  0.9593,                                 !- Year Escalation 19
  0.9589,                                 !- Year Escalation 20
  0.9607,                                 !- Year Escalation 21
  0.9625,                                 !- Year Escalation 22
  0.9650,                                 !- Year Escalation 23
  0.9708,                                 !- Year Escalation 24
  0.9751,                                 !- Year Escalation 25
  0.9762,                                 !- Year Escalation 26
  0.9766,                                 !- Year Escalation 27
  0.9766,                                 !- Year Escalation 28
  0.9769,                                 !- Year Escalation 29
  0.9773;                                 !- Year Escalation 30

LifeCycleCost:UsePriceEscalation,
  U.S. Avg  Commercial-Distillate Oil,    !- Name
  FuelOil#1,                              !- Resource
  2011,                                   !- Escalation Start Year
  January,                                !- Escalation Start Month
  0.9714,                                 !- Year Escalation 1
  0.9730,                                 !- Year Escalation 2
  0.9942,                                 !- Year Escalation 3
  1.0164,                                 !- Year Escalation 4
  1.0541,                                 !- Year Escalation 5
  1.0928,                                 !- Year Escalation 6
  1.1267,                                 !- Year Escalation 7
  1.1580,                                 !- Year Escalation 8
  1.1792,                                 !- Year Escalation 9
  1.1967,                                 !- Year Escalation 10
  1.2200,                                 !- Year Escalation 11
  1.2333,                                 !- Year Escalation 12
  1.2566,                                 !- Year Escalation 13
  1.2709,                                 !- Year Escalation 14
  1.2826,                                 !- Year Escalation 15
  1.2985,                                 !- Year Escalation 16
  1.3102,                                 !- Year Escalation 17
  1.3250,                                 !- Year Escalation 18
  1.3261,                                 !- Year Escalation 19
  1.3282,                                 !- Year Escalation 20
  1.3324,                                 !- Year Escalation 21
  1.3356,                                 !- Year Escalation 22
  1.3431,                                 !- Year Escalation 23
  1.3510,                                 !- Year Escalation 24
  1.3568,                                 !- Year Escalation 25
  1.3606,                                 !- Year Escalation 26
  1.3637,                                 !- Year Escalation 27
  1.3674,                                 !- Year Escalation 28
  1.3706,                                 !- Year Escalation 29
  1.3743;                                 !- Year Escalation 30

LifeCycleCost:UsePriceEscalation,
  U.S. Avg  Commercial-Residual Oil,      !- Name
  FuelOil#2,                              !- Resource
  2011,                                   !- Escalation Start Year
  January,                                !- Escalation Start Month
  0.8469,                                 !- Year Escalation 1
  0.8257,                                 !- Year Escalation 2
  0.8681,                                 !- Year Escalation 3
  0.8988,                                 !- Year Escalation 4
  0.9289,                                 !- Year Escalation 5
  0.9604,                                 !- Year Escalation 6
  0.9897,                                 !- Year Escalation 7
  1.0075,                                 !- Year Escalation 8
  1.0314,                                 !- Year Escalation 9
  1.0554,                                 !- Year Escalation 10
  1.0861,                                 !- Year Escalation 11
  1.1278,                                 !- Year Escalation 12
  1.1497,                                 !- Year Escalation 13
  1.1620,                                 !- Year Escalation 14
  1.1743,                                 !- Year Escalation 15
  1.1852,                                 !- Year Escalation 16
  1.1948,                                 !- Year Escalation 17
  1.2037,                                 !- Year Escalation 18
  1.2071,                                 !- Year Escalation 19
  1.2119,                                 !- Year Escalation 20
  1.2139,                                 !- Year Escalation 21
  1.2194,                                 !- Year Escalation 22
  1.2276,                                 !- Year Escalation 23
  1.2365,                                 !- Year Escalation 24
  1.2420,                                 !- Year Escalation 25
  1.2461,                                 !- Year Escalation 26
  1.2509,                                 !- Year Escalation 27
  1.2550,                                 !- Year Escalation 28
  1.2591,                                 !- Year Escalation 29
  1.2638;                                 !- Year Escalation 30

LifeCycleCost:UsePriceEscalation,
  U.S. Avg  Commercial-Natural gas,       !- Name
  NaturalGas,                             !- Resource
  2011,                                   !- Escalation Start Year
  January,                                !- Escalation Start Month
  0.9823,                                 !- Year Escalation 1
  0.9557,                                 !- Year Escalation 2
  0.9279,                                 !- Year Escalation 3
  0.9257,                                 !- Year Escalation 4
  0.9346,                                 !- Year Escalation 5
  0.9412,                                 !- Year Escalation 6
  0.9512,                                 !- Year Escalation 7
  0.9645,                                 !- Year Escalation 8
  0.9856,                                 !- Year Escalation 9
  1.0067,                                 !- Year Escalation 10
  1.0222,                                 !- Year Escalation 11
  1.0410,                                 !- Year Escalation 12
  1.0610,                                 !- Year Escalation 13
  1.0787,                                 !- Year Escalation 14
  1.0942,                                 !- Year Escalation 15
  1.1098,                                 !- Year Escalation 16
  1.1220,                                 !- Year Escalation 17
  1.1308,                                 !- Year Escalation 18
  1.1386,                                 !- Year Escalation 19
  1.1486,                                 !- Year Escalation 20
  1.1619,                                 !- Year Escalation 21
  1.1763,                                 !- Year Escalation 22
  1.1918,                                 !- Year Escalation 23
  1.2118,                                 !- Year Escalation 24
  1.2284,                                 !- Year Escalation 25
  1.2439,                                 !- Year Escalation 26
  1.2605,                                 !- Year Escalation 27
  1.2772,                                 !- Year Escalation 28
  1.2938,                                 !- Year Escalation 29
  1.3115;                                 !- Year Escalation 30

LifeCycleCost:UsePriceEscalation,
  U.S. Avg  Commercial-Coal,              !- Name
  Coal,                                   !- Resource
  2011,                                   !- Escalation Start Year
  January,                                !- Escalation Start Month
  0.9970,                                 !- Year Escalation 1
  1.0089,                                 !- Year Escalation 2
  1.0089,                                 !- Year Escalation 3
  0.9941,                                 !- Year Escalation 4
  0.9941,                                 !- Year Escalation 5
  1.0000,                                 !- Year Escalation 6
  1.0030,                                 !- Year Escalation 7
  1.0059,                                 !- Year Escalation 8
  1.0089,                                 !- Year Escalation 9
  1.0119,                                 !- Year Escalation 10
  1.0148,                                 !- Year Escalation 11
  1.0178,                                 !- Year Escalation 12
  1.0208,                                 !- Year Escalation 13
  1.0267,                                 !- Year Escalation 14
  1.0297,                                 !- Year Escalation 15
  1.0356,                                 !- Year Escalation 16
  1.0415,                                 !- Year Escalation 17
  1.0534,                                 !- Year Escalation 18
  1.0564,                                 !- Year Escalation 19
  1.0593,                                 !- Year Escalation 20
  1.0653,                                 !- Year Escalation 21
  1.0712,                                 !- Year Escalation 22
  1.0742,                                 !- Year Escalation 23
  1.0801,                                 !- Year Escalation 24
  1.0831,                                 !- Year Escalation 25
  1.0831,                                 !- Year Escalation 26
  1.0861,                                 !- Year Escalation 27
  1.0890,                                 !- Year Escalation 28
  1.0920,                                 !- Year Escalation 29
  1.0950;                                 !- Year Escalation 30

Building,
  Building 1,                             !- Name
  0,                                      !- North Axis {deg}
  ,                                       !- Terrain
  ,                                       !- Loads Convergence Tolerance Value
  ,                                       !- Temperature Convergence Tolerance Value {deltaC}
  FullExteriorWithReflections,            !- Solar Distribution
  ,                                       !- Maximum Number of Warmup Days
  ;                                       !- Minimum Number of Warmup Days

Zone,
  Thermal Zone 1,                         !- Name
  -0,                                     !- Direction of Relative North {deg}
  51.7248610437959,                       !- X Origin {m}
  100.996061556875,                       !- Y Origin {m}
  1.24875,                                !- Z Origin {m}
  ,                                       !- Type
  ,                                       !- Multiplier
  ,                                       !- Ceiling Height {m}
  ,                                       !- Volume {m3}
  ,                                       !- Floor Area {m2}
  ,                                       !- Zone Inside Convection Algorithm
  ;                                       !- Zone Outside Convection Algorithm

BuildingSurface:Detailed,
  Surface 27,                             !- Name
  Floor,                                  !- Surface Type
  ASHRAE 90.1-2004 ExtWall Mass ClimateZone 6 Reversed, !- Construction Name
  Thermal Zone 1,                         !- Zone Name
  Surface,                                !- Outside Boundary Condition
  Surface 26,                             !- Outside Boundary Condition Object
  NoSun,                                  !- Sun Exposure
  NoWind,                                 !- Wind Exposure
  ,                                       !- View Factor to Ground
  ,                                       !- Number of Vertices
  -4.2632564145606e-14, 4.12114786740858e-13, 0, !- X,Y,Z Vertex 1 {m}
  8.27456355344496, -8.27456355344499, 0, !- X,Y,Z Vertex 2 {m}
  16.54912710689, -16.54912710689, 0,     !- X,Y,Z Vertex 3 {m}
  24.823690660335, -24.8236906603349, 0,  !- X,Y,Z Vertex 4 {m}
  33.09825421378, -33.0982542137799, 0,   !- X,Y,Z Vertex 5 {m}
  41.3728177672249, -41.3728177672249, 0, !- X,Y,Z Vertex 6 {m}
  33.7673792592913, -48.9782562751585, 0, !- X,Y,Z Vertex 7 {m}
  26.1619407513578, -56.5836947830921, 0, !- X,Y,Z Vertex 8 {m}
  18.5565022434242, -64.1891332910257, 0, !- X,Y,Z Vertex 9 {m}
  10.9510637354906, -71.7945717989593, 0, !- X,Y,Z Vertex 10 {m}
  3.34562522755696, -79.4000103068929, 0, !- X,Y,Z Vertex 11 {m}
  -4.25981328037664, -87.0054488148265, 0, !- X,Y,Z Vertex 12 {m}
  -11.8652517883102, -94.6108873227601, 0, !- X,Y,Z Vertex 13 {m}
  -20.1398153417552, -86.3363237693151, 0, !- X,Y,Z Vertex 14 {m}
  -28.4143788952002, -78.0617602158701, 0, !- X,Y,Z Vertex 15 {m}
  -36.6889424486452, -69.7871966624251, 0, !- X,Y,Z Vertex 16 {m}
  -44.9635060020902, -61.5126331089802, 0, !- X,Y,Z Vertex 17 {m}
  -53.2380695555352, -53.2380695555352, 0, !- X,Y,Z Vertex 18 {m}
  -45.6326310476016, -45.6326310476016, 0, !- X,Y,Z Vertex 19 {m}
  -38.0271925396679, -38.027192539668, 0, !- X,Y,Z Vertex 20 {m}
  -30.4217540317343, -30.4217540317344, 0, !- X,Y,Z Vertex 21 {m}
  -22.8163155238007, -22.8163155238008, 0, !- X,Y,Z Vertex 22 {m}
  -15.2108770158672, -15.2108770158672, 0, !- X,Y,Z Vertex 23 {m}
  -7.60543850793364, -7.6054385079336, 0; !- X,Y,Z Vertex 24 {m}

BuildingSurface:Detailed,
  Surface 28,                             !- Name
  Wall,                                   !- Surface Type
  ASHRAE 90.1-2004 ExtWall Mass ClimateZone 6, !- Construction Name
  Thermal Zone 1,                         !- Zone Name
  Outdoors,                               !- Outside Boundary Condition
  ,                                       !- Outside Boundary Condition Object
  SunExposed,                             !- Sun Exposure
  WindExposed,                            !- Wind Exposure
  ,                                       !- View Factor to Ground
  ,                                       !- Number of Vertices
  8.27456355344496, -8.27456355344499, 0.8325, !- X,Y,Z Vertex 1 {m}
  8.27456355344496, -8.27456355344499, 0, !- X,Y,Z Vertex 2 {m}
  -4.2632564145606e-14, 4.12114786740858e-13, 0, !- X,Y,Z Vertex 3 {m}
  -4.2632564145606e-14, 4.12114786740858e-13, 0.8325; !- X,Y,Z Vertex 4 {m}

FenestrationSurface:Detailed,
  Sub Surface 2,                          !- Name
  Window,                                 !- Surface Type
  ASHRAE 90.1-2004 ExtWindow ClimateZone 4-6, !- Construction Name
  Surface 28,                             !- Building Surface Name
  ,                                       !- Outside Boundary Condition Object
  ,                                       !- View Factor to Ground
  ,                                       !- Shading Control Name
  ,                                       !- Frame and Divider Name
  ,                                       !- Multiplier
  ,                                       !- Number of Vertices
  8.25660304120282, -8.25660304120285, 0.79902089527259, !- X,Y,Z Vertex 1 {m}
  8.25660304120282, -8.25660304120285, 0.0254, !- X,Y,Z Vertex 2 {m}
  0.0179605122420963, -0.0179605122417268, 0.0254, !- X,Y,Z Vertex 3 {m}
  0.0179605122420963, -0.0179605122417268, 0.79902089527259; !- X,Y,Z Vertex 4 {m}

BuildingSurface:Detailed,
  Surface 29,                             !- Name
  Wall,                                   !- Surface Type
  ASHRAE 90.1-2004 ExtWall Mass ClimateZone 6, !- Construction Name
  Thermal Zone 1,                         !- Zone Name
  Outdoors,                               !- Outside Boundary Condition
  ,                                       !- Outside Boundary Condition Object
  SunExposed,                             !- Sun Exposure
  WindExposed,                            !- Wind Exposure
  ,                                       !- View Factor to Ground
  ,                                       !- Number of Vertices
  16.54912710689, -16.54912710689, 0.8325, !- X,Y,Z Vertex 1 {m}
  16.54912710689, -16.54912710689, 0,     !- X,Y,Z Vertex 2 {m}
  8.27456355344496, -8.27456355344499, 0, !- X,Y,Z Vertex 3 {m}
  8.27456355344496, -8.27456355344499, 0.8325; !- X,Y,Z Vertex 4 {m}

FenestrationSurface:Detailed,
  Sub Surface 1,                          !- Name
  Window,                                 !- Surface Type
  ASHRAE 90.1-2004 ExtWindow ClimateZone 4-6, !- Construction Name
  Surface 29,                             !- Building Surface Name
  ,                                       !- Outside Boundary Condition Object
  ,                                       !- View Factor to Ground
  ,                                       !- Shading Control Name
  ,                                       !- Frame and Divider Name
  ,                                       !- Multiplier
  ,                                       !- Number of Vertices
  16.5311665946479, -16.5311665946479, 0.79902089527259, !- X,Y,Z Vertex 1 {m}
  16.5311665946479, -16.5311665946479, 0.0254, !- X,Y,Z Vertex 2 {m}
  8.2925240656871, -8.29252406568713, 0.0254, !- X,Y,Z Vertex 3 {m}
  8.2925240656871, -8.29252406568713, 0.79902089527259; !- X,Y,Z Vertex 4 {m}

BuildingSurface:Detailed,
  Surface 30,                             !- Name
  Wall,                                   !- Surface Type
  ASHRAE 90.1-2004 ExtWall Mass ClimateZone 6, !- Construction Name
  Thermal Zone 1,                         !- Zone Name
  Outdoors,                               !- Outside Boundary Condition
  ,                                       !- Outside Boundary Condition Object
  SunExposed,                             !- Sun Exposure
  WindExposed,                            !- Wind Exposure
  ,                                       !- View Factor to Ground
  ,                                       !- Number of Vertices
  24.823690660335, -24.8236906603349, 0.8325, !- X,Y,Z Vertex 1 {m}
  24.823690660335, -24.8236906603349, 0,  !- X,Y,Z Vertex 2 {m}
  16.54912710689, -16.54912710689, 0,     !- X,Y,Z Vertex 3 {m}
  16.54912710689, -16.54912710689, 0.8325; !- X,Y,Z Vertex 4 {m}

FenestrationSurface:Detailed,
  Sub Surface 18,                         !- Name
  Window,                                 !- Surface Type
  ASHRAE 90.1-2004 ExtWindow ClimateZone 4-6, !- Construction Name
  Surface 30,                             !- Building Surface Name
  ,                                       !- Outside Boundary Condition Object
  ,                                       !- View Factor to Ground
  ,                                       !- Shading Control Name
  ,                                       !- Frame and Divider Name
  ,                                       !- Multiplier
  ,                                       !- Number of Vertices
  24.8057301480929, -24.8057301480928, 0.79902089527259, !- X,Y,Z Vertex 1 {m}
  24.8057301480929, -24.8057301480928, 0.0254, !- X,Y,Z Vertex 2 {m}
  16.5670876191321, -16.5670876191321, 0.0254, !- X,Y,Z Vertex 3 {m}
  16.5670876191321, -16.5670876191321, 0.79902089527259; !- X,Y,Z Vertex 4 {m}

BuildingSurface:Detailed,
  Surface 31,                             !- Name
  Wall,                                   !- Surface Type
  ASHRAE 90.1-2004 ExtWall Mass ClimateZone 6, !- Construction Name
  Thermal Zone 1,                         !- Zone Name
  Outdoors,                               !- Outside Boundary Condition
  ,                                       !- Outside Boundary Condition Object
  SunExposed,                             !- Sun Exposure
  WindExposed,                            !- Wind Exposure
  ,                                       !- View Factor to Ground
  ,                                       !- Number of Vertices
  33.09825421378, -33.0982542137799, 0.8325, !- X,Y,Z Vertex 1 {m}
  33.09825421378, -33.0982542137799, 0,   !- X,Y,Z Vertex 2 {m}
  24.823690660335, -24.8236906603349, 0,  !- X,Y,Z Vertex 3 {m}
  24.823690660335, -24.8236906603349, 0.8325; !- X,Y,Z Vertex 4 {m}

FenestrationSurface:Detailed,
  Sub Surface 5,                          !- Name
  Window,                                 !- Surface Type
  ASHRAE 90.1-2004 ExtWindow ClimateZone 4-6, !- Construction Name
  Surface 31,                             !- Building Surface Name
  ,                                       !- Outside Boundary Condition Object
  ,                                       !- View Factor to Ground
  ,                                       !- Shading Control Name
  ,                                       !- Frame and Divider Name
  ,                                       !- Multiplier
  ,                                       !- Number of Vertices
  33.0802937015379, -33.0802937015378, 0.79902089527259, !- X,Y,Z Vertex 1 {m}
  33.0802937015379, -33.0802937015378, 0.0254, !- X,Y,Z Vertex 2 {m}
  24.8416511725771, -24.841651172577, 0.0254, !- X,Y,Z Vertex 3 {m}
  24.8416511725771, -24.841651172577, 0.79902089527259; !- X,Y,Z Vertex 4 {m}

BuildingSurface:Detailed,
  Surface 32,                             !- Name
  Wall,                                   !- Surface Type
  ASHRAE 90.1-2004 ExtWall Mass ClimateZone 6, !- Construction Name
  Thermal Zone 1,                         !- Zone Name
  Outdoors,                               !- Outside Boundary Condition
  ,                                       !- Outside Boundary Condition Object
  SunExposed,                             !- Sun Exposure
  WindExposed,                            !- Wind Exposure
  ,                                       !- View Factor to Ground
  ,                                       !- Number of Vertices
  41.3728177672249, -41.3728177672249, 0.8325, !- X,Y,Z Vertex 1 {m}
  41.3728177672249, -41.3728177672249, 0, !- X,Y,Z Vertex 2 {m}
  33.09825421378, -33.0982542137799, 0,   !- X,Y,Z Vertex 3 {m}
  33.09825421378, -33.0982542137799, 0.8325; !- X,Y,Z Vertex 4 {m}

FenestrationSurface:Detailed,
  Sub Surface 14,                         !- Name
  Window,                                 !- Surface Type
  ASHRAE 90.1-2004 ExtWindow ClimateZone 4-6, !- Construction Name
  Surface 32,                             !- Building Surface Name
  ,                                       !- Outside Boundary Condition Object
  ,                                       !- View Factor to Ground
  ,                                       !- Shading Control Name
  ,                                       !- Frame and Divider Name
  ,                                       !- Multiplier
  ,                                       !- Number of Vertices
  41.3548572549828, -41.3548572549828, 0.79902089527259, !- X,Y,Z Vertex 1 {m}
  41.3548572549828, -41.3548572549828, 0.0254, !- X,Y,Z Vertex 2 {m}
  33.1162147260221, -33.116214726022, 0.0254, !- X,Y,Z Vertex 3 {m}
  33.1162147260221, -33.116214726022, 0.79902089527259; !- X,Y,Z Vertex 4 {m}

BuildingSurface:Detailed,
  Surface 33,                             !- Name
  Wall,                                   !- Surface Type
  ASHRAE 90.1-2004 ExtWall Mass ClimateZone 6, !- Construction Name
  Thermal Zone 1,                         !- Zone Name
  Outdoors,                               !- Outside Boundary Condition
  ,                                       !- Outside Boundary Condition Object
  SunExposed,                             !- Sun Exposure
  WindExposed,                            !- Wind Exposure
  ,                                       !- View Factor to Ground
  ,                                       !- Number of Vertices
  33.7673792592913, -48.9782562751585, 0.8325, !- X,Y,Z Vertex 1 {m}
  33.7673792592913, -48.9782562751585, 0, !- X,Y,Z Vertex 2 {m}
  41.3728177672249, -41.3728177672249, 0, !- X,Y,Z Vertex 3 {m}
  41.3728177672249, -41.3728177672249, 0.8325; !- X,Y,Z Vertex 4 {m}

FenestrationSurface:Detailed,
  Sub Surface 11,                         !- Name
  Window,                                 !- Surface Type
  ASHRAE 90.1-2004 ExtWindow ClimateZone 4-6, !- Construction Name
  Surface 33,                             !- Building Surface Name
  ,                                       !- Outside Boundary Condition Object
  ,                                       !- View Factor to Ground
  ,                                       !- Shading Control Name
  ,                                       !- Frame and Divider Name
  ,                                       !- Multiplier
  ,                                       !- Number of Vertices
  33.7853397715334, -48.9602957629164, 0.799317768408101, !- X,Y,Z Vertex 1 {m}
  33.7853397715334, -48.9602957629164, 0.0254, !- X,Y,Z Vertex 2 {m}
  41.3548572549828, -41.390778279467, 0.0254, !- X,Y,Z Vertex 3 {m}
  41.3548572549828, -41.390778279467, 0.799317768408101; !- X,Y,Z Vertex 4 {m}

BuildingSurface:Detailed,
  Surface 34,                             !- Name
  Wall,                                   !- Surface Type
  ASHRAE 90.1-2004 ExtWall Mass ClimateZone 6, !- Construction Name
  Thermal Zone 1,                         !- Zone Name
  Outdoors,                               !- Outside Boundary Condition
  ,                                       !- Outside Boundary Condition Object
  SunExposed,                             !- Sun Exposure
  WindExposed,                            !- Wind Exposure
  ,                                       !- View Factor to Ground
  ,                                       !- Number of Vertices
  26.1619407513578, -56.5836947830921, 0.8325, !- X,Y,Z Vertex 1 {m}
  26.1619407513578, -56.5836947830921, 0, !- X,Y,Z Vertex 2 {m}
  33.7673792592913, -48.9782562751585, 0, !- X,Y,Z Vertex 3 {m}
  33.7673792592913, -48.9782562751585, 0.8325; !- X,Y,Z Vertex 4 {m}

FenestrationSurface:Detailed,
  Sub Surface 17,                         !- Name
  Window,                                 !- Surface Type
  ASHRAE 90.1-2004 ExtWindow ClimateZone 4-6, !- Construction Name
  Surface 34,                             !- Building Surface Name
  ,                                       !- Outside Boundary Condition Object
  ,                                       !- View Factor to Ground
  ,                                       !- Shading Control Name
  ,                                       !- Frame and Divider Name
  ,                                       !- Multiplier
  ,                                       !- Number of Vertices
  26.1799012635999, -56.56573427085, 0.799317768408101, !- X,Y,Z Vertex 1 {m}
  26.1799012635999, -56.56573427085, 0.0254, !- X,Y,Z Vertex 2 {m}
  33.7494187470492, -48.9962167874006, 0.0254, !- X,Y,Z Vertex 3 {m}
  33.7494187470492, -48.9962167874006, 0.799317768408101; !- X,Y,Z Vertex 4 {m}

BuildingSurface:Detailed,
  Surface 35,                             !- Name
  Wall,                                   !- Surface Type
  ASHRAE 90.1-2004 ExtWall Mass ClimateZone 6, !- Construction Name
  Thermal Zone 1,                         !- Zone Name
  Outdoors,                               !- Outside Boundary Condition
  ,                                       !- Outside Boundary Condition Object
  SunExposed,                             !- Sun Exposure
  WindExposed,                            !- Wind Exposure
  ,                                       !- View Factor to Ground
  ,                                       !- Number of Vertices
  18.5565022434242, -64.1891332910257, 0.8325, !- X,Y,Z Vertex 1 {m}
  18.5565022434242, -64.1891332910257, 0, !- X,Y,Z Vertex 2 {m}
  26.1619407513578, -56.5836947830921, 0, !- X,Y,Z Vertex 3 {m}
  26.1619407513578, -56.5836947830921, 0.8325; !- X,Y,Z Vertex 4 {m}

FenestrationSurface:Detailed,
  Sub Surface 21,                         !- Name
  Window,                                 !- Surface Type
  ASHRAE 90.1-2004 ExtWindow ClimateZone 4-6, !- Construction Name
  Surface 35,                             !- Building Surface Name
  ,                                       !- Outside Boundary Condition Object
  ,                                       !- View Factor to Ground