
OS:Version,
  {1d3ca565-a24f-49f2-bcdc-5669f79b5938}, !- Handle
  1.7.0;                                  !- Version Identifier

OS:BuildingStory,
  {ded89733-2509-440f-a084-cbd1be61066d}, !- Handle
  Story 1,                                !- Name
  0,                                      !- Nominal Z Coordinate {m}
  1.24875,                                !- Nominal Floor to Floor Height {m}
  ,                                       !- Default Construction Set Name
  ,                                       !- Default Schedule Set Name
  {afcf793a-3852-433d-9bb4-3383f64034eb}; !- Group Rendering Name

OS:Space,
  {7b2ed6f5-76a2-4379-a20a-0b5a1dce6b2e}, !- Handle
  0 Core Space,                           !- Name
  ,                                       !- Space Type Name
  ,                                       !- Default Construction Set Name
  ,                                       !- Default Schedule Set Name
  -0,                                     !- Direction of Relative North {deg}
  5.92555482634326,                       !- X Origin {m}
  47.30544366138,                         !- Y Origin {m}
  0,                                      !- Z Origin {m}
  {ded89733-2509-440f-a084-cbd1be61066d}, !- Building Story Name
  {22b7a5da-76d6-45e2-bae4-98f0ff716c5d}; !- Thermal Zone Name

OS:Surface,
  {2657edcb-bb0b-4e7e-9472-3fc6a50db92c}, !- Handle
  Surface 1,                              !- Name
  Floor,                                  !- Surface Type
  ,                                       !- Construction Name
  {7b2ed6f5-76a2-4379-a20a-0b5a1dce6b2e}, !- Space Name
  Ground,                                 !- Outside Boundary Condition
  ,                                       !- Outside Boundary Condition Object
  NoSun,                                  !- Sun Exposure
  NoWind,                                 !- Wind Exposure
  ,                                       !- View Factor to Ground
  ,                                       !- Number of Vertices
  -2.66453525910038e-15, -2.8421709430404e-14, 0, !- X,Y,Z Vertex 1 {m}
  41.3798888350367, -41.3798888350368, 0, !- X,Y,Z Vertex 2 {m}
  -11.8511096526865, -94.61088732276, 0,  !- X,Y,Z Vertex 3 {m}
  -53.2309984877233, -53.2309984877233, 0; !- X,Y,Z Vertex 4 {m}

OS:Surface,
  {0b6e2952-93b1-4e86-9d38-a24b0659ec4f}, !- Handle
  Surface 2,                              !- Name
  Wall,                                   !- Surface Type
  ,                                       !- Construction Name
  {7b2ed6f5-76a2-4379-a20a-0b5a1dce6b2e}, !- Space Name
  Outdoors,                               !- Outside Boundary Condition
  ,                                       !- Outside Boundary Condition Object
  SunExposed,                             !- Sun Exposure
  WindExposed,                            !- Wind Exposure
  ,                                       !- View Factor to Ground
  ,                                       !- Number of Vertices
  8.27597776700734, -8.27597776700733, 1.24875, !- X,Y,Z Vertex 1 {m}
  8.27597776700734, -8.27597776700733, 0, !- X,Y,Z Vertex 2 {m}
  -2.5102230945668e-15, -2.82673972658704e-14, 0, !- X,Y,Z Vertex 3 {m}
  -2.5102230945668e-15, -2.82673972658704e-14, 1.24875; !- X,Y,Z Vertex 4 {m}

OS:Surface,
  {23344f86-771d-47b1-8259-60b1d7177542}, !- Handle
  Surface 3,                              !- Name
  Wall,                                   !- Surface Type
  ,                                       !- Construction Name
  {7b2ed6f5-76a2-4379-a20a-0b5a1dce6b2e}, !- Space Name
  Outdoors,                               !- Outside Boundary Condition
  ,                                       !- Outside Boundary Condition Object
  SunExposed,                             !- Sun Exposure
  WindExposed,                            !- Wind Exposure
  ,                                       !- View Factor to Ground
  ,                                       !- Number of Vertices
  16.5519555340147, -16.5519555340147, 1.24875, !- X,Y,Z Vertex 1 {m}
  16.5519555340147, -16.5519555340147, 0, !- X,Y,Z Vertex 2 {m}
  8.27597776700734, -8.27597776700733, 0, !- X,Y,Z Vertex 3 {m}
  8.27597776700734, -8.27597776700733, 1.24875; !- X,Y,Z Vertex 4 {m}

OS:Surface,
  {49d71338-4349-4384-adf9-13b110fbf6c6}, !- Handle
  Surface 4,                              !- Name
  Wall,                                   !- Surface Type
  ,                                       !- Construction Name
  {7b2ed6f5-76a2-4379-a20a-0b5a1dce6b2e}, !- Space Name
  Outdoors,                               !- Outside Boundary Condition
  ,                                       !- Outside Boundary Condition Object
  SunExposed,                             !- Sun Exposure
  WindExposed,                            !- Wind Exposure
  ,                                       !- View Factor to Ground
  ,                                       !- Number of Vertices
  24.827933301022, -24.827933301022, 1.24875, !- X,Y,Z Vertex 1 {m}
  24.827933301022, -24.827933301022, 0,   !- X,Y,Z Vertex 2 {m}
  16.5519555340147, -16.5519555340147, 0, !- X,Y,Z Vertex 3 {m}
  16.5519555340147, -16.5519555340147, 1.24875; !- X,Y,Z Vertex 4 {m}

OS:Surface,
  {ced83ebc-02c1-4b8e-814a-6e35c665343b}, !- Handle
  Surface 5,                              !- Name
  Wall,                                   !- Surface Type
  ,                                       !- Construction Name
  {7b2ed6f5-76a2-4379-a20a-0b5a1dce6b2e}, !- Space Name
  Outdoors,                               !- Outside Boundary Condition
  ,                                       !- Outside Boundary Condition Object
  SunExposed,                             !- Sun Exposure
  WindExposed,                            !- Wind Exposure
  ,                                       !- View Factor to Ground
  ,                                       !- Number of Vertices
  33.1039110680294, -33.1039110680294, 1.24875, !- X,Y,Z Vertex 1 {m}
  33.1039110680294, -33.1039110680294, 0, !- X,Y,Z Vertex 2 {m}
  24.827933301022, -24.827933301022, 0,   !- X,Y,Z Vertex 3 {m}
  24.827933301022, -24.827933301022, 1.24875; !- X,Y,Z Vertex 4 {m}

OS:Surface,
  {4ccf95ac-8b9e-416b-aa16-bcfbc30abbe4}, !- Handle
  Surface 6,                              !- Name
  Wall,                                   !- Surface Type
  ,                                       !- Construction Name
  {7b2ed6f5-76a2-4379-a20a-0b5a1dce6b2e}, !- Space Name
  Outdoors,                               !- Outside Boundary Condition
  ,                                       !- Outside Boundary Condition Object
  SunExposed,                             !- Sun Exposure
  WindExposed,                            !- Wind Exposure
  ,                                       !- View Factor to Ground
  ,                                       !- Number of Vertices
  41.3798888350367, -41.3798888350368, 1.24875, !- X,Y,Z Vertex 1 {m}
  41.3798888350367, -41.3798888350368, 0, !- X,Y,Z Vertex 2 {m}
  33.1039110680294, -33.1039110680294, 0, !- X,Y,Z Vertex 3 {m}
  33.1039110680294, -33.1039110680294, 1.24875; !- X,Y,Z Vertex 4 {m}

OS:Surface,
  {fcdd14ad-ddbc-4fc0-8003-c4f2526c7ffa}, !- Handle
  Surface 7,                              !- Name
  Wall,                                   !- Surface Type
  ,                                       !- Construction Name
  {7b2ed6f5-76a2-4379-a20a-0b5a1dce6b2e}, !- Space Name
  Outdoors,                               !- Outside Boundary Condition
  ,                                       !- Outside Boundary Condition Object
  SunExposed,                             !- Sun Exposure
  WindExposed,                            !- Wind Exposure
  ,                                       !- View Factor to Ground
  ,                                       !- Number of Vertices
  33.7754604796477, -48.9843171904258, 1.24875, !- X,Y,Z Vertex 1 {m}
  33.7754604796477, -48.9843171904258, 0, !- X,Y,Z Vertex 2 {m}
  41.3798888350367, -41.3798888350368, 0, !- X,Y,Z Vertex 3 {m}
  41.3798888350367, -41.3798888350368, 1.24875; !- X,Y,Z Vertex 4 {m}

OS:Surface,
  {e2516532-4018-4ca5-8c17-a3769c8691ec}, !- Handle
  Surface 8,                              !- Name
  Wall,                                   !- Surface Type
  ,                                       !- Construction Name
  {7b2ed6f5-76a2-4379-a20a-0b5a1dce6b2e}, !- Space Name
  Outdoors,                               !- Outside Boundary Condition
  ,                                       !- Outside Boundary Condition Object
  SunExposed,                             !- Sun Exposure
  WindExposed,                            !- Wind Exposure
  ,                                       !- View Factor to Ground
  ,                                       !- Number of Vertices
  26.1710321242586, -56.5887455458149, 1.24875, !- X,Y,Z Vertex 1 {m}
  26.1710321242586, -56.5887455458149, 0, !- X,Y,Z Vertex 2 {m}
  33.7754604796477, -48.9843171904258, 0, !- X,Y,Z Vertex 3 {m}
  33.7754604796477, -48.9843171904258, 1.24875; !- X,Y,Z Vertex 4 {m}

OS:Surface,
  {d1e87983-fcb2-4aa8-9f00-af1b51cafb2b}, !- Handle
  Surface 9,                              !- Name
  Wall,                                   !- Surface Type
  ,                                       !- Construction Name
  {7b2ed6f5-76a2-4379-a20a-0b5a1dce6b2e}, !- Space Name
  Outdoors,                               !- Outside Boundary Condition
  ,                                       !- Outside Boundary Condition Object
  SunExposed,                             !- Sun Exposure
  WindExposed,                            !- Wind Exposure
  ,                                       !- View Factor to Ground
  ,                                       !- Number of Vertices
  18.5666037688696, -64.1931739012039, 1.24875, !- X,Y,Z Vertex 1 {m}
  18.5666037688696, -64.1931739012039, 0, !- X,Y,Z Vertex 2 {m}
  26.1710321242586, -56.5887455458149, 0, !- X,Y,Z Vertex 3 {m}
  26.1710321242586, -56.5887455458149, 1.24875; !- X,Y,Z Vertex 4 {m}

OS:Surface,
  {7728bf94-93e3-4351-9f53-2df9cb29eddd}, !- Handle
  Surface 10,                             !- Name
  Wall,                                   !- Surface Type
  ,                                       !- Construction Name
  {7b2ed6f5-76a2-4379-a20a-0b5a1dce6b2e}, !- Space Name
  Outdoors,                               !- Outside Boundary Condition
  ,                                       !- Outside Boundary Condition Object
  SunExposed,                             !- Sun Exposure
  WindExposed,                            !- Wind Exposure
  ,                                       !- View Factor to Ground
  ,                                       !- Number of Vertices
  10.9621754134806, -71.7976022565929, 1.24875, !- X,Y,Z Vertex 1 {m}
  10.9621754134806, -71.7976022565929, 0, !- X,Y,Z Vertex 2 {m}
  18.5666037688696, -64.1931739012039, 0, !- X,Y,Z Vertex 3 {m}
  18.5666037688696, -64.1931739012039, 1.24875; !- X,Y,Z Vertex 4 {m}

OS:Surface,
  {2c1aec0b-025b-444a-b1c2-2505bdd207e3}, !- Handle
  Surface 11,                             !- Name
  Wall,                                   !- Surface Type
  ,                                       !- Construction Name
  {7b2ed6f5-76a2-4379-a20a-0b5a1dce6b2e}, !- Space Name
  Outdoors,                               !- Outside Boundary Condition
  ,                                       !- Outside Boundary Condition Object
  SunExposed,                             !- Sun Exposure
  WindExposed,                            !- Wind Exposure
  ,                                       !- View Factor to Ground
  ,                                       !- Number of Vertices
  3.35774705809156, -79.402030611982, 1.24875, !- X,Y,Z Vertex 1 {m}
  3.35774705809156, -79.402030611982, 0,  !- X,Y,Z Vertex 2 {m}
  10.9621754134806, -71.7976022565929, 0, !- X,Y,Z Vertex 3 {m}
  10.9621754134806, -71.7976022565929, 1.24875; !- X,Y,Z Vertex 4 {m}

OS:Surface,
  {ce6bc6ff-fc27-4fac-83c5-88b911cb9b45}, !- Handle
  Surface 12,                             !- Name
  Wall,                                   !- Surface Type
  ,                                       !- Construction Name
  {7b2ed6f5-76a2-4379-a20a-0b5a1dce6b2e}, !- Space Name
  Outdoors,                               !- Outside Boundary Condition
  ,                                       !- Outside Boundary Condition Object
  SunExposed,                             !- Sun Exposure
  WindExposed,                            !- Wind Exposure
  ,                                       !- View Factor to Ground
  ,                                       !- Number of Vertices
  -4.24668129729747, -87.006458967371, 1.24875, !- X,Y,Z Vertex 1 {m}
  -4.24668129729747, -87.006458967371, 0, !- X,Y,Z Vertex 2 {m}
  3.35774705809157, -79.402030611982, 0,  !- X,Y,Z Vertex 3 {m}
  3.35774705809157, -79.402030611982, 1.24875; !- X,Y,Z Vertex 4 {m}

OS:Surface,
  {05677425-29f6-493d-85fc-dd3d62cc58e5}, !- Handle
  Surface 13,                             !- Name
  Wall,                                   !- Surface Type
  ,                                       !- Construction Name
  {7b2ed6f5-76a2-4379-a20a-0b5a1dce6b2e}, !- Space Name
  Outdoors,                               !- Outside Boundary Condition
  ,                                       !- Outside Boundary Condition Object
  SunExposed,                             !- Sun Exposure
  WindExposed,                            !- Wind Exposure
  ,                                       !- View Factor to Ground
  ,                                       !- Number of Vertices
  -11.8511096526865, -94.61088732276, 1.24875, !- X,Y,Z Vertex 1 {m}
  -11.8511096526865, -94.61088732276, 0,  !- X,Y,Z Vertex 2 {m}
  -4.24668129729748, -87.006458967371, 0, !- X,Y,Z Vertex 3 {m}
  -4.24668129729748, -87.006458967371, 1.24875; !- X,Y,Z Vertex 4 {m}

OS:Surface,
  {87c44b7d-9e1b-47dd-a0b9-8f5c7a84f646}, !- Handle
  Surface 14,                             !- Name
  Wall,                                   !- Surface Type
  ,                                       !- Construction Name
  {7b2ed6f5-76a2-4379-a20a-0b5a1dce6b2e}, !- Space Name
  Outdoors,                               !- Outside Boundary Condition
  ,                                       !- Outside Boundary Condition Object
  SunExposed,                             !- Sun Exposure
  WindExposed,                            !- Wind Exposure
  ,                                       !- View Factor to Ground
  ,                                       !- Number of Vertices
  -20.1270874196939, -86.3349095557527, 1.24875, !- X,Y,Z Vertex 1 {m}
  -20.1270874196939, -86.3349095557527, 0, !- X,Y,Z Vertex 2 {m}
  -11.8511096526865, -94.61088732276, 0,  !- X,Y,Z Vertex 3 {m}
  -11.8511096526865, -94.61088732276, 1.24875; !- X,Y,Z Vertex 4 {m}

OS:Surface,
  {175caf9d-d073-4dad-9981-1eef4c136d1b}, !- Handle
  Surface 15,                             !- Name
  Wall,                                   !- Surface Type
  ,                                       !- Construction Name
  {7b2ed6f5-76a2-4379-a20a-0b5a1dce6b2e}, !- Space Name
  Outdoors,                               !- Outside Boundary Condition
  ,                                       !- Outside Boundary Condition Object
  SunExposed,                             !- Sun Exposure
  WindExposed,                            !- Wind Exposure
  ,                                       !- View Factor to Ground
  ,                                       !- Number of Vertices
  -28.4030651867013, -78.0589317887453, 1.24875, !- X,Y,Z Vertex 1 {m}
  -28.4030651867013, -78.0589317887453, 0, !- X,Y,Z Vertex 2 {m}
  -20.1270874196939, -86.3349095557527, 0, !- X,Y,Z Vertex 3 {m}
  -20.1270874196939, -86.3349095557527, 1.24875; !- X,Y,Z Vertex 4 {m}

OS:Surface,
  {e612341e-cf9d-4f54-a3d0-3a4890ac35e3}, !- Handle
  Surface 16,                             !- Name
  Wall,                                   !- Surface Type
  ,                                       !- Construction Name
  {7b2ed6f5-76a2-4379-a20a-0b5a1dce6b2e}, !- Space Name
  Outdoors,                               !- Outside Boundary Condition
  ,                                       !- Outside Boundary Condition Object
  SunExposed,                             !- Sun Exposure
  WindExposed,                            !- Wind Exposure
  ,                                       !- View Factor to Ground
  ,                                       !- Number of Vertices
  -36.6790429537086, -69.782954021738, 1.24875, !- X,Y,Z Vertex 1 {m}
  -36.6790429537086, -69.782954021738, 0, !- X,Y,Z Vertex 2 {m}
  -28.4030651867013, -78.0589317887453, 0, !- X,Y,Z Vertex 3 {m}
  -28.4030651867013, -78.0589317887453, 1.24875; !- X,Y,Z Vertex 4 {m}

OS:Surface,
  {9a71f26e-a866-47b2-aaca-eade486eef9d}, !- Handle
  Surface 17,                             !- Name
  Wall,                                   !- Surface Type
  ,                                       !- Construction Name
  {7b2ed6f5-76a2-4379-a20a-0b5a1dce6b2e}, !- Space Name
  Outdoors,                               !- Outside Boundary Condition
  ,                                       !- Outside Boundary Condition Object
  SunExposed,                             !- Sun Exposure
  WindExposed,                            !- Wind Exposure
  ,                                       !- View Factor to Ground
  ,                                       !- Number of Vertices
  -44.955020720716, -61.5069762547306, 1.24875, !- X,Y,Z Vertex 1 {m}
  -44.955020720716, -61.5069762547306, 0, !- X,Y,Z Vertex 2 {m}
  -36.6790429537086, -69.782954021738, 0, !- X,Y,Z Vertex 3 {m}
  -36.6790429537086, -69.782954021738, 1.24875; !- X,Y,Z Vertex 4 {m}

OS:Surface,
  {30912fd7-9978-4975-9010-d9ed32eb4bb6}, !- Handle
  Surface 18,                             !- Name
  Wall,                                   !- Surface Type
  ,                                       !- Construction Name
  {7b2ed6f5-76a2-4379-a20a-0b5a1dce6b2e}, !- Space Name
  Outdoors,                               !- Outside Boundary Condition
  ,                                       !- Outside Boundary Condition Object
  SunExposed,                             !- Sun Exposure
  WindExposed,                            !- Wind Exposure
  ,                                       !- View Factor to Ground
  ,                                       !- Number of Vertices
  -53.2309984877233, -53.2309984877233, 1.24875, !- X,Y,Z Vertex 1 {m}
  -53.2309984877233, -53.2309984877233, 0, !- X,Y,Z Vertex 2 {m}
  -44.955020720716, -61.5069762547306, 0, !- X,Y,Z Vertex 3 {m}
  -44.955020720716, -61.5069762547306, 1.24875; !- X,Y,Z Vertex 4 {m}

OS:Surface,
  {deab7c23-dc61-47d1-be3d-04068752db9e}, !- Handle
  Surface 19,                             !- Name
  Wall,                                   !- Surface Type
  ,                                       !- Construction Name
  {7b2ed6f5-76a2-4379-a20a-0b5a1dce6b2e}, !- Space Name
  Outdoors,                               !- Outside Boundary Condition
  ,                                       !- Outside Boundary Condition Object
  SunExposed,                             !- Sun Exposure
  WindExposed,                            !- Wind Exposure
  ,                                       !- View Factor to Ground
  ,                                       !- Number of Vertices
  -45.6265701323343, -45.6265701323343, 1.24875, !- X,Y,Z Vertex 1 {m}
  -45.6265701323343, -45.6265701323343, 0, !- X,Y,Z Vertex 2 {m}
  -53.2309984877233, -53.2309984877233, 0, !- X,Y,Z Vertex 3 {m}
  -53.2309984877233, -53.2309984877233, 1.24875; !- X,Y,Z Vertex 4 {m}

OS:Surface,
  {70ec58fa-eb04-4dc2-bff3-3475c9b5a35c}, !- Handle
  Surface 20,                             !- Name
  Wall,                                   !- Surface Type
  ,                                       !- Construction Name
  {7b2ed6f5-76a2-4379-a20a-0b5a1dce6b2e}, !- Space Name
  Outdoors,                               !- Outside Boundary Condition
  ,                                       !- Outside Boundary Condition Object
  SunExposed,                             !- Sun Exposure
  WindExposed,                            !- Wind Exposure
  ,                                       !- View Factor to Ground
  ,                                       !- Number of Vertices
  -38.0221417769452, -38.0221417769452, 1.24875, !- X,Y,Z Vertex 1 {m}
  -38.0221417769452, -38.0221417769452, 0, !- X,Y,Z Vertex 2 {m}
  -45.6265701323343, -45.6265701323343, 0, !- X,Y,Z Vertex 3 {m}
  -45.6265701323343, -45.6265701323343, 1.24875; !- X,Y,Z Vertex 4 {m}

OS:Surface,
  {befe9022-86ca-4499-87e0-2153de964f5f}, !- Handle
  Surface 21,                             !- Name
  Wall,                                   !- Surface Type
  ,                                       !- Construction Name
  {7b2ed6f5-76a2-4379-a20a-0b5a1dce6b2e}, !- Space Name
  Outdoors,                               !- Outside Boundary Condition
  ,                                       !- Outside Boundary Condition Object
  SunExposed,                             !- Sun Exposure
  WindExposed,                            !- Wind Exposure
  ,                                       !- View Factor to Ground
  ,                                       !- Number of Vertices
  -30.4177134215562, -30.4177134215561, 1.24875, !- X,Y,Z Vertex 1 {m}
  -30.4177134215562, -30.4177134215561, 0, !- X,Y,Z Vertex 2 {m}
  -38.0221417769452, -38.0221417769452, 0, !- X,Y,Z Vertex 3 {m}
  -38.0221417769452, -38.0221417769452, 1.24875; !- X,Y,Z Vertex 4 {m}

OS:Surface,
  {d8b8b2b8-4326-4141-81a9-cd336dcf7a87}, !- Handle
  Surface 22,                             !- Name
  Wall,                                   !- Surface Type
  ,                                       !- Construction Name
  {7b2ed6f5-76a2-4379-a20a-0b5a1dce6b2e}, !- Space Name
  Outdoors,                               !- Outside Boundary Condition
  ,                                       !- Outside Boundary Condition Object
  SunExposed,                             !- Sun Exposure
  WindExposed,                            !- Wind Exposure
  ,                                       !- View Factor to Ground
  ,                                       !- Number of Vertices
  -22.8132850661672, -22.8132850661671, 1.24875, !- X,Y,Z Vertex 1 {m}
  -22.8132850661672, -22.8132850661671, 0, !- X,Y,Z Vertex 2 {m}
  -30.4177134215562, -30.4177134215561, 0, !- X,Y,Z Vertex 3 {m}
  -30.4177134215562, -30.4177134215561, 1.24875; !- X,Y,Z Vertex 4 {m}

OS:Surface,
  {f30c6bcb-876a-4614-a9bd-1bffa3eaca26}, !- Handle
  Surface 23,                             !- Name
  Wall,                                   !- Surface Type
  ,                                       !- Construction Name
  {7b2ed6f5-76a2-4379-a20a-0b5a1dce6b2e}, !- Space Name
  Outdoors,                               !- Outside Boundary Condition
  ,                                       !- Outside Boundary Condition Object
  SunExposed,                             !- Sun Exposure
  WindExposed,                            !- Wind Exposure
  ,                                       !- View Factor to Ground
  ,                                       !- Number of Vertices
  -15.2088567107781, -15.2088567107781, 1.24875, !- X,Y,Z Vertex 1 {m}
  -15.2088567107781, -15.2088567107781, 0, !- X,Y,Z Vertex 2 {m}
  -22.8132850661672, -22.8132850661671, 0, !- X,Y,Z Vertex 3 {m}
  -22.8132850661672, -22.8132850661671, 1.24875; !- X,Y,Z Vertex 4 {m}

OS:Surface,
  {a5f8e9fb-b88b-42af-a2c0-a094197e36a9}, !- Handle
  Surface 24,                             !- Name
  Wall,                                   !- Surface Type
  ,                                       !- Construction Name
  {7b2ed6f5-76a2-4379-a20a-0b5a1dce6b2e}, !- Space Name
  Outdoors,                               !- Outside Boundary Condition
  ,                                       !- Outside Boundary Condition Object
  SunExposed,                             !- Sun Exposure
  WindExposed,                            !- Wind Exposure
  ,                                       !- View Factor to Ground
  ,                                       !- Number of Vertices
  -7.60442835538904, -7.60442835538903, 1.24875, !- X,Y,Z Vertex 1 {m}
  -7.60442835538904, -7.60442835538903, 0, !- X,Y,Z Vertex 2 {m}
  -15.2088567107781, -15.2088567107781, 0, !- X,Y,Z Vertex 3 {m}
  -15.2088567107781, -15.2088567107781, 1.24875; !- X,Y,Z Vertex 4 {m}

OS:Surface,
  {eaf2f770-43b9-4b9e-b9e6-86eddd08bc95}, !- Handle
  Surface 25,                             !- Name
  Wall,                                   !- Surface Type
  ,                                       !- Construction Name
  {7b2ed6f5-76a2-4379-a20a-0b5a1dce6b2e}, !- Space Name
  Outdoors,                               !- Outside Boundary Condition
  ,                                       !- Outside Boundary Condition Object
  SunExposed,                             !- Sun Exposure
  WindExposed,                            !- Wind Exposure
  ,                                       !- View Factor to Ground
  ,                                       !- Number of Vertices
  -3.11140144585471e-15, -2.79748432436497e-14, 1.24875, !- X,Y,Z Vertex 1 {m}
  -3.11140144585471e-15, -2.79748432436497e-14, 0, !- X,Y,Z Vertex 2 {m}
  -7.60442835538904, -7.60442835538903, 0, !- X,Y,Z Vertex 3 {m}
  -7.60442835538904, -7.60442835538903, 1.24875; !- X,Y,Z Vertex 4 {m}

OS:Surface,
  {a5e0f67a-29b5-46b6-ab11-c89cab25cf89}, !- Handle
  Surface 26,                             !- Name
  RoofCeiling,                            !- Surface Type
  ,                                       !- Construction Name
  {7b2ed6f5-76a2-4379-a20a-0b5a1dce6b2e}, !- Space Name
  Surface,                                !- Outside Boundary Condition
  {4f0cd978-be5b-41e7-8ab3-ebdbdbfea43b}, !- Outside Boundary Condition Object
  NoSun,                                  !- Sun Exposure
  NoWind,                                 !- Wind Exposure
  ,                                       !- View Factor to Ground
  ,                                       !- Number of Vertices
  -11.8511096526865, -94.61088732276, 1.24875, !- X,Y,Z Vertex 1 {m}
  41.3798888350367, -41.3798888350368, 1.24875, !- X,Y,Z Vertex 2 {m}
  -2.66453525910038e-15, -2.8421709430404e-14, 1.24875, !- X,Y,Z Vertex 3 {m}
  -53.2309984877233, -53.2309984877233, 1.24875; !- X,Y,Z Vertex 4 {m}

OS:BuildingStory,
  {5ac7ae8d-2c9b-44be-a35b-09d894da3dbc}, !- Handle
  Story 2,                                !- Name
  1.24875,                                !- Nominal Z Coordinate {m}
  0.8325,                                 !- Nominal Floor to Floor Height {m}
  ,                                       !- Default Construction Set Name
  ,                                       !- Default Schedule Set Name
  {84d3ccc0-e23a-48cd-b941-147ac5f0fdcf}; !- Group Rendering Name

OS:Space,
  {7df6e361-cdab-4dbd-82c3-4e276dac6cd8}, !- Handle
  0 Core Space 1,                         !- Name
  ,                                       !- Space Type Name
  ,                                       !- Default Construction Set Name
  ,                                       !- Default Schedule Set Name
  -0,                                     !- Direction of Relative North {deg}
  5.92555482634326,                       !- X Origin {m}
  47.30544366138,                         !- Y Origin {m}
  1.24875,                                !- Z Origin {m}
  {5ac7ae8d-2c9b-44be-a35b-09d894da3dbc}, !- Building Story Name
  {b0a21f92-941f-434c-9dfc-d770db952b72}; !- Thermal Zone Name

OS:Surface,
  {4f0cd978-be5b-41e7-8ab3-ebdbdbfea43b}, !- Handle
  Surface 27,                             !- Name
  Floor,                                  !- Surface Type
  ,                                       !- Construction Name
  {7df6e361-cdab-4dbd-82c3-4e276dac6cd8}, !- Space Name
  Surface,                                !- Outside Boundary Condition
  {a5e0f67a-29b5-46b6-ab11-c89cab25cf89}, !- Outside Boundary Condition Object
  NoSun,                                  !- Sun Exposure
  NoWind,                                 !- Wind Exposure
  ,                                       !- View Factor to Ground
  ,                                       !- Number of Vertices
  -2.66453525910038e-15, -2.8421709430404e-14, 0, !- X,Y,Z Vertex 1 {m}
  41.3798888350367, -41.3798888350368, 0, !- X,Y,Z Vertex 2 {m}
  -11.8511096526865, -94.61088732276, 0,  !- X,Y,Z Vertex 3 {m}
  -53.2309984877233, -53.2309984877233, 0; !- X,Y,Z Vertex 4 {m}

OS:Surface,
  {83b7a954-52c0-4470-bef0-bfedbe050e77}, !- Handle
  Surface 28,                             !- Name
  Wall,                                   !- Surface Type
  ,                                       !- Construction Name
  {7df6e361-cdab-4dbd-82c3-4e276dac6cd8}, !- Space Name
  Outdoors,                               !- Outside Boundary Condition
  ,                                       !- Outside Boundary Condition Object
  SunExposed,                             !- Sun Exposure
  WindExposed,                            !- Wind Exposure
  ,                                       !- View Factor to Ground
  ,                                       !- Number of Vertices
  8.27597776700734, -8.27597776700733, 0.8325, !- X,Y,Z Vertex 1 {m}
  8.27597776700734, -8.27597776700733, 0, !- X,Y,Z Vertex 2 {m}
  -2.25498886448316e-15, -2.80121630357868e-14, 0, !- X,Y,Z Vertex 3 {m}
  -2.25498886448316e-15, -2.80121630357868e-14, 0.8325; !- X,Y,Z Vertex 4 {m}

OS:Surface,
  {31235831-289d-4722-b67b-ed189be5b4f6}, !- Handle
  Surface 29,                             !- Name
  Wall,                                   !- Surface Type
  ,                                       !- Construction Name
  {7df6e361-cdab-4dbd-82c3-4e276dac6cd8}, !- Space Name
  Outdoors,                               !- Outside Boundary Condition
  ,                                       !- Outside Boundary Condition Object
  SunExposed,                             !- Sun Exposure
  WindExposed,                            !- Wind Exposure