
Version,
  8.2;                                    !- Version Identifier

LifeCycleCost:Parameters,
  {27bd97a0-d70a-48b1-8e7e-adb3eb0042ea}, !- Name
  EndOfYear,                              !- Discounting Convention
  ConstantDollar,                         !- Inflation Approach
  0.03,                                   !- Real Discount Rate
  ,                                       !- Nominal Discount Rate
  ,                                       !- Inflation
  ,                                       !- Base Date Month
  2011,                                   !- Base Date Year
  ,                                       !- Service Date Month
  2011,                                   !- Service Date Year
  25,                                     !- Length of Study Period in Years
  ,                                       !- Tax rate
  None;                                   !- Depreciation Method

LifeCycleCost:UsePriceEscalation,
  U.S. Avg  Commercial-Electricity,       !- Name
  Electricity,                            !- Resource
  2011,                                   !- Escalation Start Year
  January,                                !- Escalation Start Month
  0.9838,                                 !- Year Escalation 1
  0.9730,                                 !- Year Escalation 2
  0.9632,                                 !- Year Escalation 3
  0.9611,                                 !- Year Escalation 4
  0.9571,                                 !- Year Escalation 5
  0.9553,                                 !- Year Escalation 6
  0.9539,                                 !- Year Escalation 7
  0.9521,                                 !- Year Escalation 8
  0.9546,                                 !- Year Escalation 9
  0.9550,                                 !- Year Escalation 10
  0.9553,                                 !- Year Escalation 11
  0.9564,                                 !- Year Escalation 12
  0.9575,                                 !- Year Escalation 13
  0.9596,                                 !- Year Escalation 14
  0.9618,                                 !- Year Escalation 15
  0.9614,                                 !- Year Escalation 16
  0.9618,                                 !- Year Escalation 17
  0.9618,                                 !- Year Escalation 18
  0.9593,                                 !- Year Escalation 19
  0.9589,                                 !- Year Escalation 20
  0.9607,                                 !- Year Escalation 21
  0.9625,                                 !- Year Escalation 22
  0.9650,                                 !- Year Escalation 23
  0.9708,                                 !- Year Escalation 24
  0.9751,                                 !- Year Escalation 25
  0.9762,                                 !- Year Escalation 26
  0.9766,                                 !- Year Escalation 27
  0.9766,                                 !- Year Escalation 28
  0.9769,                                 !- Year Escalation 29
  0.9773;                                 !- Year Escalation 30

LifeCycleCost:UsePriceEscalation,
  U.S. Avg  Commercial-Distillate Oil,    !- Name
  FuelOil#1,                              !- Resource
  2011,                                   !- Escalation Start Year
  January,                                !- Escalation Start Month
  0.9714,                                 !- Year Escalation 1
  0.9730,                                 !- Year Escalation 2
  0.9942,                                 !- Year Escalation 3
  1.0164,                                 !- Year Escalation 4
  1.0541,                                 !- Year Escalation 5
  1.0928,                                 !- Year Escalation 6
  1.1267,                                 !- Year Escalation 7
  1.1580,                                 !- Year Escalation 8
  1.1792,                                 !- Year Escalation 9
  1.1967,                                 !- Year Escalation 10
  1.2200,                                 !- Year Escalation 11
  1.2333,                                 !- Year Escalation 12
  1.2566,                                 !- Year Escalation 13
  1.2709,                                 !- Year Escalation 14
  1.2826,                                 !- Year Escalation 15
  1.2985,                                 !- Year Escalation 16
  1.3102,                                 !- Year Escalation 17
  1.3250,                                 !- Year Escalation 18
  1.3261,                                 !- Year Escalation 19
  1.3282,                                 !- Year Escalation 20
  1.3324,                                 !- Year Escalation 21
  1.3356,                                 !- Year Escalation 22
  1.3431,                                 !- Year Escalation 23
  1.3510,                                 !- Year Escalation 24
  1.3568,                                 !- Year Escalation 25
  1.3606,                                 !- Year Escalation 26
  1.3637,                                 !- Year Escalation 27
  1.3674,                                 !- Year Escalation 28
  1.3706,                                 !- Year Escalation 29
  1.3743;                                 !- Year Escalation 30

LifeCycleCost:UsePriceEscalation,
  U.S. Avg  Commercial-Residual Oil,      !- Name
  FuelOil#2,                              !- Resource
  2011,                                   !- Escalation Start Year
  January,                                !- Escalation Start Month
  0.8469,                                 !- Year Escalation 1
  0.8257,                                 !- Year Escalation 2
  0.8681,                                 !- Year Escalation 3
  0.8988,                                 !- Year Escalation 4
  0.9289,                                 !- Year Escalation 5
  0.9604,                                 !- Year Escalation 6
  0.9897,                                 !- Year Escalation 7
  1.0075,                                 !- Year Escalation 8
  1.0314,                                 !- Year Escalation 9
  1.0554,                                 !- Year Escalation 10
  1.0861,                                 !- Year Escalation 11
  1.1278,                                 !- Year Escalation 12
  1.1497,                                 !- Year Escalation 13
  1.1620,                                 !- Year Escalation 14
  1.1743,                                 !- Year Escalation 15
  1.1852,                                 !- Year Escalation 16
  1.1948,                                 !- Year Escalation 17
  1.2037,                                 !- Year Escalation 18
  1.2071,                                 !- Year Escalation 19
  1.2119,                                 !- Year Escalation 20
  1.2139,                                 !- Year Escalation 21
  1.2194,                                 !- Year Escalation 22
  1.2276,                                 !- Year Escalation 23
  1.2365,                                 !- Year Escalation 24
  1.2420,                                 !- Year Escalation 25
  1.2461,                                 !- Year Escalation 26
  1.2509,                                 !- Year Escalation 27
  1.2550,                                 !- Year Escalation 28
  1.2591,                                 !- Year Escalation 29
  1.2638;                                 !- Year Escalation 30

LifeCycleCost:UsePriceEscalation,
  U.S. Avg  Commercial-Natural gas,       !- Name
  NaturalGas,                             !- Resource
  2011,                                   !- Escalation Start Year
  January,                                !- Escalation Start Month
  0.9823,                                 !- Year Escalation 1
  0.9557,                                 !- Year Escalation 2
  0.9279,                                 !- Year Escalation 3
  0.9257,                                 !- Year Escalation 4
  0.9346,                                 !- Year Escalation 5
  0.9412,                                 !- Year Escalation 6
  0.9512,                                 !- Year Escalation 7
  0.9645,                                 !- Year Escalation 8
  0.9856,                                 !- Year Escalation 9
  1.0067,                                 !- Year Escalation 10
  1.0222,                                 !- Year Escalation 11
  1.0410,                                 !- Year Escalation 12
  1.0610,                                 !- Year Escalation 13
  1.0787,                                 !- Year Escalation 14
  1.0942,                                 !- Year Escalation 15
  1.1098,                                 !- Year Escalation 16
  1.1220,                                 !- Year Escalation 17
  1.1308,                                 !- Year Escalation 18
  1.1386,                                 !- Year Escalation 19
  1.1486,                                 !- Year Escalation 20
  1.1619,                                 !- Year Escalation 21
  1.1763,                                 !- Year Escalation 22
  1.1918,                                 !- Year Escalation 23
  1.2118,                                 !- Year Escalation 24
  1.2284,                                 !- Year Escalation 25
  1.2439,                                 !- Year Escalation 26
  1.2605,                                 !- Year Escalation 27
  1.2772,                                 !- Year Escalation 28
  1.2938,                                 !- Year Escalation 29
  1.3115;                                 !- Year Escalation 30

LifeCycleCost:UsePriceEscalation,
  U.S. Avg  Commercial-Coal,              !- Name
  Coal,                                   !- Resource
  2011,                                   !- Escalation Start Year
  January,                                !- Escalation Start Month
  0.9970,                                 !- Year Escalation 1
  1.0089,                                 !- Year Escalation 2
  1.0089,                                 !- Year Escalation 3
  0.9941,                                 !- Year Escalation 4
  0.9941,                                 !- Year Escalation 5
  1.0000,                                 !- Year Escalation 6
  1.0030,                                 !- Year Escalation 7
  1.0059,                                 !- Year Escalation 8
  1.0089,                                 !- Year Escalation 9
  1.0119,                                 !- Year Escalation 10
  1.0148,                                 !- Year Escalation 11
  1.0178,                                 !- Year Escalation 12
  1.0208,                                 !- Year Escalation 13
  1.0267,                                 !- Year Escalation 14
  1.0297,                                 !- Year Escalation 15
  1.0356,                                 !- Year Escalation 16
  1.0415,                                 !- Year Escalation 17
  1.0534,                                 !- Year Escalation 18
  1.0564,                                 !- Year Escalation 19
  1.0593,                                 !- Year Escalation 20
  1.0653,                                 !- Year Escalation 21
  1.0712,                                 !- Year Escalation 22
  1.0742,                                 !- Year Escalation 23
  1.0801,                                 !- Year Escalation 24
  1.0831,                                 !- Year Escalation 25
  1.0831,                                 !- Year Escalation 26
  1.0861,                                 !- Year Escalation 27
  1.0890,                                 !- Year Escalation 28
  1.0920,                                 !- Year Escalation 29
  1.0950;                                 !- Year Escalation 30

Building,
  Building 1,                             !- Name
  0,                                      !- North Axis {deg}
  ,                                       !- Terrain
  ,                                       !- Loads Convergence Tolerance Value
  ,                                       !- Temperature Convergence Tolerance Value {deltaC}
  FullExteriorWithReflections,            !- Solar Distribution
  ,                                       !- Maximum Number of Warmup Days
  ;                                       !- Minimum Number of Warmup Days

Zone,
  Thermal Zone 1,                         !- Name
  -0,                                     !- Direction of Relative North {deg}
  9.13802094841282,                       !- X Origin {m}
  113.102441499494,                       !- Y Origin {m}
  6.66,                                   !- Z Origin {m}
  ,                                       !- Type
  ,                                       !- Multiplier
  ,                                       !- Ceiling Height {m}
  ,                                       !- Volume {m3}
  ,                                       !- Floor Area {m2}
  ,                                       !- Zone Inside Convection Algorithm
  ;                                       !- Zone Outside Convection Algorithm

BuildingSurface:Detailed,
  Surface 157,                            !- Name
  Floor,                                  !- Surface Type
  ASHRAE 90.1-2004 ExtWall Mass ClimateZone 6 Reversed, !- Construction Name
  Thermal Zone 1,                         !- Zone Name
  Surface,                                !- Outside Boundary Condition
  Surface 156,                            !- Outside Boundary Condition Object
  NoSun,                                  !- Sun Exposure
  NoWind,                                 !- Wind Exposure
  ,                                       !- View Factor to Ground
  ,                                       !- Number of Vertices
  3.5527136788005e-15, 4.2632564145606e-13, 0, !- X,Y,Z Vertex 1 {m}
  10.8112382894471, -4.47816152553658, 0, !- X,Y,Z Vertex 2 {m}
  21.6224765788942, -8.95632305107257, 0, !- X,Y,Z Vertex 3 {m}
  32.4337148683412, -13.4344845766089, 0, !- X,Y,Z Vertex 4 {m}
  43.2449531577883, -17.9126461021451, 0, !- X,Y,Z Vertex 5 {m}
  54.0561914472354, -22.3908076276814, 0, !- X,Y,Z Vertex 6 {m}
  49.94015778684, -32.3277919137921, 0,   !- X,Y,Z Vertex 7 {m}
  45.8241241264446, -42.2647761999028, 0, !- X,Y,Z Vertex 8 {m}
  41.7080904660493, -52.2017604860135, 0, !- X,Y,Z Vertex 9 {m}
  37.5920568056539, -62.1387447721241, 0, !- X,Y,Z Vertex 10 {m}
  33.4760231452585, -72.0757290582348, 0, !- X,Y,Z Vertex 11 {m}
  29.3599894848632, -82.0127133443455, 0, !- X,Y,Z Vertex 12 {m}
  25.2439558244678, -91.9496976304562, 0, !- X,Y,Z Vertex 13 {m}
  14.4327175350207, -87.4715361049199, 0, !- X,Y,Z Vertex 14 {m}
  3.62147924557358, -82.9933745793836, 0, !- X,Y,Z Vertex 15 {m}
  -7.18975904387346, -78.5152130538474, 0, !- X,Y,Z Vertex 16 {m}
  -18.0009973333205, -74.0370515283111, 0, !- X,Y,Z Vertex 17 {m}
  -28.8122356227676, -69.5588900027748, 0, !- X,Y,Z Vertex 18 {m}
  -24.6962019623722, -59.6219057166641, 0, !- X,Y,Z Vertex 19 {m}
  -20.5801683019768, -49.6849214305534, 0, !- X,Y,Z Vertex 20 {m}
  -16.4641346415815, -39.7479371444428, 0, !- X,Y,Z Vertex 21 {m}
  -12.3481009811861, -29.8109528583321, 0, !- X,Y,Z Vertex 22 {m}
  -8.23206732079074, -19.8739685722214, 0, !- X,Y,Z Vertex 23 {m}
  -4.11603366039538, -9.93698428611059, 0; !- X,Y,Z Vertex 24 {m}

BuildingSurface:Detailed,
  Surface 158,                            !- Name
  Wall,                                   !- Surface Type
  ASHRAE 90.1-2004 ExtWall Mass ClimateZone 6, !- Construction Name
  Thermal Zone 1,                         !- Zone Name
  Outdoors,                               !- Outside Boundary Condition
  ,                                       !- Outside Boundary Condition Object
  SunExposed,                             !- Sun Exposure
  WindExposed,                            !- Wind Exposure
  ,                                       !- View Factor to Ground
  ,                                       !- Number of Vertices
  10.8112382894471, -4.47816152553658, 1.24875, !- X,Y,Z Vertex 1 {m}
  10.8112382894471, -4.47816152553658, 0, !- X,Y,Z Vertex 2 {m}
  3.5527136788005e-15, 4.2632564145606e-13, 0, !- X,Y,Z Vertex 3 {m}
  3.5527136788005e-15, 4.2632564145606e-13, 1.24875; !- X,Y,Z Vertex 4 {m}

BuildingSurface:Detailed,
  Surface 159,                            !- Name
  Wall,                                   !- Surface Type
  ASHRAE 90.1-2004 ExtWall Mass ClimateZone 6, !- Construction Name
  Thermal Zone 1,                         !- Zone Name
  Outdoors,                               !- Outside Boundary Condition
  ,                                       !- Outside Boundary Condition Object
  SunExposed,                             !- Sun Exposure
  WindExposed,                            !- Wind Exposure
  ,                                       !- View Factor to Ground
  ,                                       !- Number of Vertices
  21.6224765788942, -8.95632305107257, 1.24875, !- X,Y,Z Vertex 1 {m}
  21.6224765788942, -8.95632305107257, 0, !- X,Y,Z Vertex 2 {m}
  10.8112382894471, -4.47816152553658, 0, !- X,Y,Z Vertex 3 {m}
  10.8112382894471, -4.47816152553658, 1.24875; !- X,Y,Z Vertex 4 {m}

BuildingSurface:Detailed,
  Surface 160,                            !- Name
  Wall,                                   !- Surface Type
  ASHRAE 90.1-2004 ExtWall Mass ClimateZone 6, !- Construction Name
  Thermal Zone 1,                         !- Zone Name
  Outdoors,                               !- Outside Boundary Condition
  ,                                       !- Outside Boundary Condition Object
  SunExposed,                             !- Sun Exposure
  WindExposed,                            !- Wind Exposure
  ,                                       !- View Factor to Ground
  ,                                       !- Number of Vertices
  32.4337148683412, -13.4344845766089, 1.24875, !- X,Y,Z Vertex 1 {m}
  32.4337148683412, -13.4344845766089, 0, !- X,Y,Z Vertex 2 {m}
  21.6224765788942, -8.95632305107257, 0, !- X,Y,Z Vertex 3 {m}
  21.6224765788942, -8.95632305107257, 1.24875; !- X,Y,Z Vertex 4 {m}

BuildingSurface:Detailed,
  Surface 161,                            !- Name
  Wall,                                   !- Surface Type
  ASHRAE 90.1-2004 ExtWall Mass ClimateZone 6, !- Construction Name
  Thermal Zone 1,                         !- Zone Name
  Outdoors,                               !- Outside Boundary Condition
  ,                                       !- Outside Boundary Condition Object
  SunExposed,                             !- Sun Exposure
  WindExposed,                            !- Wind Exposure
  ,                                       !- View Factor to Ground
  ,                                       !- Number of Vertices
  43.2449531577883, -17.9126461021451, 1.24875, !- X,Y,Z Vertex 1 {m}
  43.2449531577883, -17.9126461021451, 0, !- X,Y,Z Vertex 2 {m}
  32.4337148683412, -13.4344845766089, 0, !- X,Y,Z Vertex 3 {m}
  32.4337148683412, -13.4344845766089, 1.24875; !- X,Y,Z Vertex 4 {m}

BuildingSurface:Detailed,
  Surface 162,                            !- Name
  Wall,                                   !- Surface Type
  ASHRAE 90.1-2004 ExtWall Mass ClimateZone 6, !- Construction Name
  Thermal Zone 1,                         !- Zone Name
  Outdoors,                               !- Outside Boundary Condition
  ,                                       !- Outside Boundary Condition Object
  SunExposed,                             !- Sun Exposure
  WindExposed,                            !- Wind Exposure
  ,                                       !- View Factor to Ground
  ,                                       !- Number of Vertices
  54.0561914472354, -22.3908076276814, 1.24875, !- X,Y,Z Vertex 1 {m}
  54.0561914472354, -22.3908076276814, 0, !- X,Y,Z Vertex 2 {m}
  43.2449531577883, -17.9126461021451, 0, !- X,Y,Z Vertex 3 {m}
  43.2449531577883, -17.9126461021451, 1.24875; !- X,Y,Z Vertex 4 {m}

BuildingSurface:Detailed,
  Surface 163,                            !- Name
  Wall,                                   !- Surface Type
  ASHRAE 90.1-2004 ExtWall Mass ClimateZone 6, !- Construction Name
  Thermal Zone 1,                         !- Zone Name
  Outdoors,                               !- Outside Boundary Condition
  ,                                       !- Outside Boundary Condition Object
  SunExposed,                             !- Sun Exposure
  WindExposed,                            !- Wind Exposure
  ,                                       !- View Factor to Ground
  ,                                       !- Number of Vertices
  49.94015778684, -32.3277919137921, 1.24875, !- X,Y,Z Vertex 1 {m}
  49.94015778684, -32.3277919137921, 0,   !- X,Y,Z Vertex 2 {m}
  54.0561914472354, -22.3908076276814, 0, !- X,Y,Z Vertex 3 {m}
  54.0561914472354, -22.3908076276814, 1.24875; !- X,Y,Z Vertex 4 {m}

BuildingSurface:Detailed,
  Surface 164,                            !- Name
  Wall,                                   !- Surface Type
  ASHRAE 90.1-2004 ExtWall Mass ClimateZone 6, !- Construction Name
  Thermal Zone 1,                         !- Zone Name
  Outdoors,                               !- Outside Boundary Condition
  ,                                       !- Outside Boundary Condition Object
  SunExposed,                             !- Sun Exposure
  WindExposed,                            !- Wind Exposure
  ,                                       !- View Factor to Ground
  ,                                       !- Number of Vertices
  45.8241241264446, -42.2647761999028, 1.24875, !- X,Y,Z Vertex 1 {m}
  45.8241241264446, -42.2647761999028, 0, !- X,Y,Z Vertex 2 {m}
  49.94015778684, -32.3277919137921, 0,   !- X,Y,Z Vertex 3 {m}
  49.94015778684, -32.3277919137921, 1.24875; !- X,Y,Z Vertex 4 {m}

BuildingSurface:Detailed,
  Surface 165,                            !- Name
  Wall,                                   !- Surface Type
  ASHRAE 90.1-2004 ExtWall Mass ClimateZone 6, !- Construction Name
  Thermal Zone 1,                         !- Zone Name
  Outdoors,                               !- Outside Boundary Condition
  ,                                       !- Outside Boundary Condition Object
  SunExposed,                             !- Sun Exposure
  WindExposed,                            !- Wind Exposure
  ,                                       !- View Factor to Ground
  ,                                       !- Number of Vertices
  41.7080904660493, -52.2017604860135, 1.24875, !- X,Y,Z Vertex 1 {m}
  41.7080904660493, -52.2017604860135, 0, !- X,Y,Z Vertex 2 {m}
  45.8241241264446, -42.2647761999028, 0, !- X,Y,Z Vertex 3 {m}
  45.8241241264446, -42.2647761999028, 1.24875; !- X,Y,Z Vertex 4 {m}

BuildingSurface:Detailed,
  Surface 166,                            !- Name
  Wall,                                   !- Surface Type
  ASHRAE 90.1-2004 ExtWall Mass ClimateZone 6, !- Construction Name
  Thermal Zone 1,                         !- Zone Name
  Outdoors,                               !- Outside Boundary Condition
  ,                                       !- Outside Boundary Condition Object
  SunExposed,                             !- Sun Exposure
  WindExposed,                            !- Wind Exposure
  ,                                       !- View Factor to Ground
  ,                                       !- Number of Vertices
  37.5920568056539, -62.1387447721241, 1.24875, !- X,Y,Z Vertex 1 {m}
  37.5920568056539, -62.1387447721241, 0, !- X,Y,Z Vertex 2 {m}
  41.7080904660493, -52.2017604860135, 0, !- X,Y,Z Vertex 3 {m}
  41.7080904660493, -52.2017604860135, 1.24875; !- X,Y,Z Vertex 4 {m}

BuildingSurface:Detailed,
  Surface 167,                            !- Name
  Wall,                                   !- Surface Type
  ASHRAE 90.1-2004 ExtWall Mass ClimateZone 6, !- Construction Name
  Thermal Zone 1,                         !- Zone Name
  Outdoors,                               !- Outside Boundary Condition
  ,                                       !- Outside Boundary Condition Object
  SunExposed,                             !- Sun Exposure
  WindExposed,                            !- Wind Exposure
  ,                                       !- View Factor to Ground
  ,                                       !- Number of Vertices
  33.4760231452585, -72.0757290582348, 1.24875, !- X,Y,Z Vertex 1 {m}
  33.4760231452585, -72.0757290582348, 0, !- X,Y,Z Vertex 2 {m}
  37.5920568056539, -62.1387447721241, 0, !- X,Y,Z Vertex 3 {m}
  37.5920568056539, -62.1387447721241, 1.24875; !- X,Y,Z Vertex 4 {m}

BuildingSurface:Detailed,
  Surface 168,                            !- Name
  Wall,                                   !- Surface Type
  ASHRAE 90.1-2004 ExtWall Mass ClimateZone 6, !- Construction Name
  Thermal Zone 1,                         !- Zone Name
  Outdoors,                               !- Outside Boundary Condition
  ,                                       !- Outside Boundary Condition Object
  SunExposed,                             !- Sun Exposure
  WindExposed,                            !- Wind Exposure
  ,                                       !- View Factor to Ground
  ,                                       !- Number of Vertices
  29.3599894848632, -82.0127133443455, 1.24875, !- X,Y,Z Vertex 1 {m}
  29.3599894848632, -82.0127133443455, 0, !- X,Y,Z Vertex 2 {m}
  33.4760231452585, -72.0757290582348, 0, !- X,Y,Z Vertex 3 {m}
  33.4760231452585, -72.0757290582348, 1.24875; !- X,Y,Z Vertex 4 {m}

BuildingSurface:Detailed,
  Surface 169,                            !- Name
  Wall,                                   !- Surface Type
  ASHRAE 90.1-2004 ExtWall Mass ClimateZone 6, !- Construction Name
  Thermal Zone 1,                         !- Zone Name
  Outdoors,                               !- Outside Boundary Condition
  ,                                       !- Outside Boundary Condition Object
  SunExposed,                             !- Sun Exposure
  WindExposed,                            !- Wind Exposure
  ,                                       !- View Factor to Ground
  ,                                       !- Number of Vertices
  25.2439558244678, -91.9496976304562, 1.24875, !- X,Y,Z Vertex 1 {m}
  25.2439558244678, -91.9496976304562, 0, !- X,Y,Z Vertex 2 {m}
  29.3599894848632, -82.0127133443455, 0, !- X,Y,Z Vertex 3 {m}
  29.3599894848632, -82.0127133443455, 1.24875; !- X,Y,Z Vertex 4 {m}

BuildingSurface:Detailed,
  Surface 170,                            !- Name
  Wall,                                   !- Surface Type
  ASHRAE 90.1-2004 ExtWall Mass ClimateZone 6, !- Construction Name
  Thermal Zone 1,                         !- Zone Name
  Outdoors,                               !- Outside Boundary Condition
  ,                                       !- Outside Boundary Condition Object
  SunExposed,                             !- Sun Exposure
  WindExposed,                            !- Wind Exposure
  ,                                       !- View Factor to Ground
  ,                                       !- Number of Vertices
  14.4327175350207, -87.4715361049199, 1.24875, !- X,Y,Z Vertex 1 {m}
  14.4327175350207, -87.4715361049199, 0, !- X,Y,Z Vertex 2 {m}
  25.2439558244678, -91.9496976304562, 0, !- X,Y,Z Vertex 3 {m}
  25.2439558244678, -91.9496976304562, 1.24875; !- X,Y,Z Vertex 4 {m}

BuildingSurface:Detailed,
  Surface 171,                            !- Name
  Wall,                                   !- Surface Type
  ASHRAE 90.1-2004 ExtWall Mass ClimateZone 6, !- Construction Name
  Thermal Zone 1,                         !- Zone Name
  Outdoors,                               !- Outside Boundary Condition
  ,                                       !- Outside Boundary Condition Object
  SunExposed,                             !- Sun Exposure
  WindExposed,                            !- Wind Exposure
  ,                                       !- View Factor to Ground
  ,                                       !- Number of Vertices
  3.62147924557358, -82.9933745793836, 1.24875, !- X,Y,Z Vertex 1 {m}
  3.62147924557358, -82.9933745793836, 0, !- X,Y,Z Vertex 2 {m}
  14.4327175350207, -87.4715361049199, 0, !- X,Y,Z Vertex 3 {m}
  14.4327175350207, -87.4715361049199, 1.24875; !- X,Y,Z Vertex 4 {m}

BuildingSurface:Detailed,
  Surface 172,                            !- Name
  Wall,                                   !- Surface Type
  ASHRAE 90.1-2004 ExtWall Mass ClimateZone 6, !- Construction Name
  Thermal Zone 1,                         !- Zone Name
  Outdoors,                               !- Outside Boundary Condition
  ,                                       !- Outside Boundary Condition Object
  SunExposed,                             !- Sun Exposure
  WindExposed,                            !- Wind Exposure
  ,                                       !- View Factor to Ground
  ,                                       !- Number of Vertices
  -7.18975904387346, -78.5152130538474, 1.24875, !- X,Y,Z Vertex 1 {m}
  -7.18975904387346, -78.5152130538474, 0, !- X,Y,Z Vertex 2 {m}
  3.62147924557358, -82.9933745793836, 0, !- X,Y,Z Vertex 3 {m}
  3.62147924557358, -82.9933745793836, 1.24875; !- X,Y,Z Vertex 4 {m}

BuildingSurface:Detailed,
  Surface 173,                            !- Name
  Wall,                                   !- Surface Type
  ASHRAE 90.1-2004 ExtWall Mass ClimateZone 6, !- Construction Name
  Thermal Zone 1,                         !- Zone Name
  Outdoors,                               !- Outside Boundary Condition
  ,                                       !- Outside Boundary Condition Object
  SunExposed,                             !- Sun Exposure
  WindExposed,                            !- Wind Exposure
  ,                                       !- View Factor to Ground
  ,                                       !- Number of Vertices
  -18.0009973333205, -74.0370515283111, 1.24875, !- X,Y,Z Vertex 1 {m}