
OS:Version,
  {4196adfd-68b0-4dba-93bf-2ce494894bd9}, !- Handle
  1.7.0;                                  !- Version Identifier

OS:BuildingStory,
  {890c6b48-bdfb-4f3b-b57e-1063c711b414}, !- Handle
  Story 1,                                !- Name
  0,                                      !- Nominal Z Coordinate {m}
  1.24875,                                !- Nominal Floor to Floor Height {m}
  ,                                       !- Default Construction Set Name
  ,                                       !- Default Schedule Set Name
  {6bb1f034-7ec5-4a53-8b0e-c44efed5dc3c}; !- Group Rendering Name

OS:Space,
  {d8ed960e-1dd5-4d58-a974-c2afcfd662c8}, !- Handle
  0 Core Space,                           !- Name
  ,                                       !- Space Type Name
  ,                                       !- Default Construction Set Name
  ,                                       !- Default Schedule Set Name
  -0,                                     !- Direction of Relative North {deg}
  -29.26,                                 !- X Origin {m}
  37.64,                                  !- Y Origin {m}
  0,                                      !- Z Origin {m}
  {890c6b48-bdfb-4f3b-b57e-1063c711b414}, !- Building Story Name
  {720963b0-c485-4923-b91f-27da90994f1a}; !- Thermal Zone Name

OS:Surface,
  {d57af0c1-2fc3-4ef6-b2c1-658807fe7490}, !- Handle
  Surface 1,                              !- Name
  Floor,                                  !- Surface Type
  ,                                       !- Construction Name
  {d8ed960e-1dd5-4d58-a974-c2afcfd662c8}, !- Space Name
  Ground,                                 !- Outside Boundary Condition
  ,                                       !- Outside Boundary Condition Object
  NoSun,                                  !- Sun Exposure
  NoWind,                                 !- Wind Exposure
  ,                                       !- View Factor to Ground
  ,                                       !- Number of Vertices
  58.52, 0, 0,                            !- X,Y,Z Vertex 1 {m}
  58.52, -75.28, 0,                       !- X,Y,Z Vertex 2 {m}
  0, -75.28, 0,                           !- X,Y,Z Vertex 3 {m}
  0, 0, 0;                                !- X,Y,Z Vertex 4 {m}

OS:Surface,
  {97fca2c5-cd1e-4d43-86b0-3a3fc1333dfb}, !- Handle
  Surface 2,                              !- Name
  Wall,                                   !- Surface Type
  ,                                       !- Construction Name
  {d8ed960e-1dd5-4d58-a974-c2afcfd662c8}, !- Space Name
  Outdoors,                               !- Outside Boundary Condition
  ,                                       !- Outside Boundary Condition Object
  SunExposed,                             !- Sun Exposure
  WindExposed,                            !- Wind Exposure
  ,                                       !- View Factor to Ground
  ,                                       !- Number of Vertices
  11.704, 0, 1.24875,                     !- X,Y,Z Vertex 1 {m}
  11.704, 0, 0,                           !- X,Y,Z Vertex 2 {m}
  0, 0, 0,                                !- X,Y,Z Vertex 3 {m}
  0, 0, 1.24875;                          !- X,Y,Z Vertex 4 {m}

OS:Surface,
  {b2033f60-b433-49a9-a0fc-092cd92d8cca}, !- Handle
  Surface 3,                              !- Name
  Wall,                                   !- Surface Type
  ,                                       !- Construction Name
  {d8ed960e-1dd5-4d58-a974-c2afcfd662c8}, !- Space Name
  Outdoors,                               !- Outside Boundary Condition
  ,                                       !- Outside Boundary Condition Object
  SunExposed,                             !- Sun Exposure
  WindExposed,                            !- Wind Exposure
  ,                                       !- View Factor to Ground
  ,                                       !- Number of Vertices
  23.408, 0, 1.24875,                     !- X,Y,Z Vertex 1 {m}
  23.408, 0, 0,                           !- X,Y,Z Vertex 2 {m}
  11.704, 0, 0,                           !- X,Y,Z Vertex 3 {m}
  11.704, 0, 1.24875;                     !- X,Y,Z Vertex 4 {m}

OS:Surface,
  {0a3e6a1e-f5f1-4f7e-89bf-ae253a30717a}, !- Handle
  Surface 4,                              !- Name
  Wall,                                   !- Surface Type
  ,                                       !- Construction Name
  {d8ed960e-1dd5-4d58-a974-c2afcfd662c8}, !- Space Name
  Outdoors,                               !- Outside Boundary Condition
  ,                                       !- Outside Boundary Condition Object
  SunExposed,                             !- Sun Exposure
  WindExposed,                            !- Wind Exposure
  ,                                       !- View Factor to Ground
  ,                                       !- Number of Vertices
  35.112, 0, 1.24875,                     !- X,Y,Z Vertex 1 {m}
  35.112, 0, 0,                           !- X,Y,Z Vertex 2 {m}
  23.408, 0, 0,                           !- X,Y,Z Vertex 3 {m}
  23.408, 0, 1.24875;                     !- X,Y,Z Vertex 4 {m}

OS:Surface,
  {ee14269f-6bcc-45c6-8d9f-ce12ba2be03d}, !- Handle
  Surface 5,                              !- Name
  Wall,                                   !- Surface Type
  ,                                       !- Construction Name
  {d8ed960e-1dd5-4d58-a974-c2afcfd662c8}, !- Space Name
  Outdoors,                               !- Outside Boundary Condition
  ,                                       !- Outside Boundary Condition Object
  SunExposed,                             !- Sun Exposure
  WindExposed,                            !- Wind Exposure
  ,                                       !- View Factor to Ground
  ,                                       !- Number of Vertices
  46.816, 0, 1.24875,                     !- X,Y,Z Vertex 1 {m}
  46.816, 0, 0,                           !- X,Y,Z Vertex 2 {m}
  35.112, 0, 0,                           !- X,Y,Z Vertex 3 {m}
  35.112, 0, 1.24875;                     !- X,Y,Z Vertex 4 {m}

OS:Surface,
  {2c28b525-2bb4-442d-b505-1d7cd2b85f70}, !- Handle
  Surface 6,                              !- Name
  Wall,                                   !- Surface Type
  ,                                       !- Construction Name
  {d8ed960e-1dd5-4d58-a974-c2afcfd662c8}, !- Space Name
  Outdoors,                               !- Outside Boundary Condition
  ,                                       !- Outside Boundary Condition Object
  SunExposed,                             !- Sun Exposure
  WindExposed,                            !- Wind Exposure
  ,                                       !- View Factor to Ground
  ,                                       !- Number of Vertices
  58.52, 0, 1.24875,                      !- X,Y,Z Vertex 1 {m}
  58.52, 0, 0,                            !- X,Y,Z Vertex 2 {m}
  46.816, 0, 0,                           !- X,Y,Z Vertex 3 {m}
  46.816, 0, 1.24875;                     !- X,Y,Z Vertex 4 {m}

OS:Surface,
  {7e761e31-08d1-4902-a3b9-fc3a3a3c9eb8}, !- Handle
  Surface 7,                              !- Name
  Wall,                                   !- Surface Type
  ,                                       !- Construction Name
  {d8ed960e-1dd5-4d58-a974-c2afcfd662c8}, !- Space Name
  Outdoors,                               !- Outside Boundary Condition
  ,                                       !- Outside Boundary Condition Object
  SunExposed,                             !- Sun Exposure
  WindExposed,                            !- Wind Exposure
  ,                                       !- View Factor to Ground
  ,                                       !- Number of Vertices
  58.52, -10.7542857142857, 1.24875,      !- X,Y,Z Vertex 1 {m}
  58.52, -10.7542857142857, 0,            !- X,Y,Z Vertex 2 {m}
  58.52, 0, 0,                            !- X,Y,Z Vertex 3 {m}
  58.52, 0, 1.24875;                      !- X,Y,Z Vertex 4 {m}

OS:Surface,
  {3c4ac7c1-3c20-4a74-b587-f67fcd2b0344}, !- Handle
  Surface 8,                              !- Name
  Wall,                                   !- Surface Type
  ,                                       !- Construction Name
  {d8ed960e-1dd5-4d58-a974-c2afcfd662c8}, !- Space Name
  Outdoors,                               !- Outside Boundary Condition
  ,                                       !- Outside Boundary Condition Object
  SunExposed,                             !- Sun Exposure
  WindExposed,                            !- Wind Exposure
  ,                                       !- View Factor to Ground
  ,                                       !- Number of Vertices
  58.52, -21.5085714285714, 1.24875,      !- X,Y,Z Vertex 1 {m}
  58.52, -21.5085714285714, 0,            !- X,Y,Z Vertex 2 {m}
  58.52, -10.7542857142857, 0,            !- X,Y,Z Vertex 3 {m}
  58.52, -10.7542857142857, 1.24875;      !- X,Y,Z Vertex 4 {m}

OS:Surface,
  {80ead1ed-6e6a-4299-bd99-c6be0c40b2f8}, !- Handle
  Surface 9,                              !- Name
  Wall,                                   !- Surface Type
  ,                                       !- Construction Name
  {d8ed960e-1dd5-4d58-a974-c2afcfd662c8}, !- Space Name
  Outdoors,                               !- Outside Boundary Condition
  ,                                       !- Outside Boundary Condition Object
  SunExposed,                             !- Sun Exposure
  WindExposed,                            !- Wind Exposure
  ,                                       !- View Factor to Ground
  ,                                       !- Number of Vertices
  58.52, -32.2628571428571, 1.24875,      !- X,Y,Z Vertex 1 {m}
  58.52, -32.2628571428571, 0,            !- X,Y,Z Vertex 2 {m}
  58.52, -21.5085714285714, 0,            !- X,Y,Z Vertex 3 {m}
  58.52, -21.5085714285714, 1.24875;      !- X,Y,Z Vertex 4 {m}

OS:Surface,
  {28c50e84-bc89-4fc8-aa3e-e6c03fd825de}, !- Handle
  Surface 10,                             !- Name
  Wall,                                   !- Surface Type
  ,                                       !- Construction Name
  {d8ed960e-1dd5-4d58-a974-c2afcfd662c8}, !- Space Name
  Outdoors,                               !- Outside Boundary Condition
  ,                                       !- Outside Boundary Condition Object
  SunExposed,                             !- Sun Exposure
  WindExposed,                            !- Wind Exposure
  ,                                       !- View Factor to Ground
  ,                                       !- Number of Vertices
  58.52, -43.0171428571429, 1.24875,      !- X,Y,Z Vertex 1 {m}
  58.52, -43.0171428571429, 0,            !- X,Y,Z Vertex 2 {m}
  58.52, -32.2628571428571, 0,            !- X,Y,Z Vertex 3 {m}
  58.52, -32.2628571428571, 1.24875;      !- X,Y,Z Vertex 4 {m}

OS:Surface,
  {8f318951-5caf-460f-97ff-59a148f2d06e}, !- Handle
  Surface 11,                             !- Name
  Wall,                                   !- Surface Type
  ,                                       !- Construction Name
  {d8ed960e-1dd5-4d58-a974-c2afcfd662c8}, !- Space Name
  Outdoors,                               !- Outside Boundary Condition
  ,                                       !- Outside Boundary Condition Object
  SunExposed,                             !- Sun Exposure
  WindExposed,                            !- Wind Exposure
  ,                                       !- View Factor to Ground
  ,                                       !- Number of Vertices
  58.52, -53.7714285714286, 1.24875,      !- X,Y,Z Vertex 1 {m}
  58.52, -53.7714285714286, 0,            !- X,Y,Z Vertex 2 {m}
  58.52, -43.0171428571429, 0,            !- X,Y,Z Vertex 3 {m}
  58.52, -43.0171428571429, 1.24875;      !- X,Y,Z Vertex 4 {m}

OS:Surface,
  {d55e9687-83d5-4121-8c40-250ced021428}, !- Handle
  Surface 12,                             !- Name
  Wall,                                   !- Surface Type
  ,                                       !- Construction Name
  {d8ed960e-1dd5-4d58-a974-c2afcfd662c8}, !- Space Name
  Outdoors,                               !- Outside Boundary Condition
  ,                                       !- Outside Boundary Condition Object
  SunExposed,                             !- Sun Exposure
  WindExposed,                            !- Wind Exposure
  ,                                       !- View Factor to Ground
  ,                                       !- Number of Vertices
  58.52, -64.5257142857143, 1.24875,      !- X,Y,Z Vertex 1 {m}
  58.52, -64.5257142857143, 0,            !- X,Y,Z Vertex 2 {m}
  58.52, -53.7714285714286, 0,            !- X,Y,Z Vertex 3 {m}
  58.52, -53.7714285714286, 1.24875;      !- X,Y,Z Vertex 4 {m}

OS:Surface,
  {948fedb8-66d8-4861-b3bf-f6ff0da147bf}, !- Handle
  Surface 13,                             !- Name
  Wall,                                   !- Surface Type
  ,                                       !- Construction Name
  {d8ed960e-1dd5-4d58-a974-c2afcfd662c8}, !- Space Name
  Outdoors,                               !- Outside Boundary Condition
  ,                                       !- Outside Boundary Condition Object
  SunExposed,                             !- Sun Exposure
  WindExposed,                            !- Wind Exposure
  ,                                       !- View Factor to Ground
  ,                                       !- Number of Vertices
  58.52, -75.28, 1.24875,                 !- X,Y,Z Vertex 1 {m}
  58.52, -75.28, 0,                       !- X,Y,Z Vertex 2 {m}
  58.52, -64.5257142857143, 0,            !- X,Y,Z Vertex 3 {m}
  58.52, -64.5257142857143, 1.24875;      !- X,Y,Z Vertex 4 {m}

OS:Surface,
  {dbd1db97-a243-468e-8ba8-27ac4ed001a5}, !- Handle
  Surface 14,                             !- Name
  Wall,                                   !- Surface Type
  ,                                       !- Construction Name
  {d8ed960e-1dd5-4d58-a974-c2afcfd662c8}, !- Space Name
  Outdoors,                               !- Outside Boundary Condition
  ,                                       !- Outside Boundary Condition Object
  SunExposed,                             !- Sun Exposure
  WindExposed,                            !- Wind Exposure
  ,                                       !- View Factor to Ground
  ,                                       !- Number of Vertices
  46.816, -75.28, 1.24875,                !- X,Y,Z Vertex 1 {m}
  46.816, -75.28, 0,                      !- X,Y,Z Vertex 2 {m}
  58.52, -75.28, 0,                       !- X,Y,Z Vertex 3 {m}
  58.52, -75.28, 1.24875;                 !- X,Y,Z Vertex 4 {m}

OS:Surface,
  {c1fd394c-dc83-4349-b474-7eb63c365f7e}, !- Handle
  Surface 15,                             !- Name
  Wall,                                   !- Surface Type
  ,                                       !- Construction Name
  {d8ed960e-1dd5-4d58-a974-c2afcfd662c8}, !- Space Name
  Outdoors,                               !- Outside Boundary Condition
  ,                                       !- Outside Boundary Condition Object
  SunExposed,                             !- Sun Exposure
  WindExposed,                            !- Wind Exposure
  ,                                       !- View Factor to Ground
  ,                                       !- Number of Vertices
  35.112, -75.28, 1.24875,                !- X,Y,Z Vertex 1 {m}
  35.112, -75.28, 0,                      !- X,Y,Z Vertex 2 {m}
  46.816, -75.28, 0,                      !- X,Y,Z Vertex 3 {m}
  46.816, -75.28, 1.24875;                !- X,Y,Z Vertex 4 {m}

OS:Surface,
  {0931e149-8339-462d-94b0-759089e4159e}, !- Handle
  Surface 16,                             !- Name
  Wall,                                   !- Surface Type
  ,                                       !- Construction Name
  {d8ed960e-1dd5-4d58-a974-c2afcfd662c8}, !- Space Name
  Outdoors,                               !- Outside Boundary Condition
  ,                                       !- Outside Boundary Condition Object
  SunExposed,                             !- Sun Exposure
  WindExposed,                            !- Wind Exposure
  ,                                       !- View Factor to Ground
  ,                                       !- Number of Vertices
  23.408, -75.28, 1.24875,                !- X,Y,Z Vertex 1 {m}
  23.408, -75.28, 0,                      !- X,Y,Z Vertex 2 {m}
  35.112, -75.28, 0,                      !- X,Y,Z Vertex 3 {m}
  35.112, -75.28, 1.24875;                !- X,Y,Z Vertex 4 {m}

OS:Surface,
  {ca0efaa2-7b42-4aad-8719-9f690c2e6455}, !- Handle
  Surface 17,                             !- Name
  Wall,                                   !- Surface Type
  ,                                       !- Construction Name
  {d8ed960e-1dd5-4d58-a974-c2afcfd662c8}, !- Space Name
  Outdoors,                               !- Outside Boundary Condition
  ,                                       !- Outside Boundary Condition Object
  SunExposed,                             !- Sun Exposure
  WindExposed,                            !- Wind Exposure
  ,                                       !- View Factor to Ground
  ,                                       !- Number of Vertices
  11.704, -75.28, 1.24875,                !- X,Y,Z Vertex 1 {m}
  11.704, -75.28, 0,                      !- X,Y,Z Vertex 2 {m}
  23.408, -75.28, 0,                      !- X,Y,Z Vertex 3 {m}
  23.408, -75.28, 1.24875;                !- X,Y,Z Vertex 4 {m}

OS:Surface,
  {da73a0e4-c158-4a57-8b56-b07e150e997e}, !- Handle
  Surface 18,                             !- Name
  Wall,                                   !- Surface Type
  ,                                       !- Construction Name
  {d8ed960e-1dd5-4d58-a974-c2afcfd662c8}, !- Space Name
  Outdoors,                               !- Outside Boundary Condition
  ,                                       !- Outside Boundary Condition Object
  SunExposed,                             !- Sun Exposure
  WindExposed,                            !- Wind Exposure
  ,                                       !- View Factor to Ground
  ,                                       !- Number of Vertices
  0, -75.28, 1.24875,                     !- X,Y,Z Vertex 1 {m}
  0, -75.28, 0,                           !- X,Y,Z Vertex 2 {m}
  11.704, -75.28, 0,                      !- X,Y,Z Vertex 3 {m}
  11.704, -75.28, 1.24875;                !- X,Y,Z Vertex 4 {m}

OS:Surface,
  {a2121e10-491d-4ddc-8814-b48518dffaed}, !- Handle
  Surface 19,                             !- Name
  Wall,                                   !- Surface Type
  ,                                       !- Construction Name
  {d8ed960e-1dd5-4d58-a974-c2afcfd662c8}, !- Space Name
  Outdoors,                               !- Outside Boundary Condition
  ,                                       !- Outside Boundary Condition Object
  SunExposed,                             !- Sun Exposure
  WindExposed,                            !- Wind Exposure
  ,                                       !- View Factor to Ground
  ,                                       !- Number of Vertices
  0, -64.5257142857143, 1.24875,          !- X,Y,Z Vertex 1 {m}
  0, -64.5257142857143, 0,                !- X,Y,Z Vertex 2 {m}
  0, -75.28, 0,                           !- X,Y,Z Vertex 3 {m}
  0, -75.28, 1.24875;                     !- X,Y,Z Vertex 4 {m}

OS:Surface,
  {7ce5888f-2c87-4d9d-99f8-7e6b302b1465}, !- Handle
  Surface 20,                             !- Name
  Wall,                                   !- Surface Type
  ,                                       !- Construction Name
  {d8ed960e-1dd5-4d58-a974-c2afcfd662c8}, !- Space Name
  Outdoors,                               !- Outside Boundary Condition
  ,                                       !- Outside Boundary Condition Object
  SunExposed,                             !- Sun Exposure
  WindExposed,                            !- Wind Exposure
  ,                                       !- View Factor to Ground
  ,                                       !- Number of Vertices
  0, -53.7714285714286, 1.24875,          !- X,Y,Z Vertex 1 {m}
  0, -53.7714285714286, 0,                !- X,Y,Z Vertex 2 {m}
  0, -64.5257142857143, 0,                !- X,Y,Z Vertex 3 {m}
  0, -64.5257142857143, 1.24875;          !- X,Y,Z Vertex 4 {m}

OS:Surface,
  {e64b848c-1896-4306-bae3-a732705496c0}, !- Handle
  Surface 21,                             !- Name
  Wall,                                   !- Surface Type
  ,                                       !- Construction Name
  {d8ed960e-1dd5-4d58-a974-c2afcfd662c8}, !- Space Name
  Outdoors,                               !- Outside Boundary Condition
  ,                                       !- Outside Boundary Condition Object
  SunExposed,                             !- Sun Exposure
  WindExposed,                            !- Wind Exposure
  ,                                       !- View Factor to Ground
  ,                                       !- Number of Vertices
  0, -43.0171428571429, 1.24875,          !- X,Y,Z Vertex 1 {m}
  0, -43.0171428571429, 0,                !- X,Y,Z Vertex 2 {m}
  0, -53.7714285714286, 0,                !- X,Y,Z Vertex 3 {m}
  0, -53.7714285714286, 1.24875;          !- X,Y,Z Vertex 4 {m}

OS:Surface,
  {bd6697c5-369d-4a91-8a7a-24679a31a3c5}, !- Handle
  Surface 22,                             !- Name
  Wall,                                   !- Surface Type
  ,                                       !- Construction Name
  {d8ed960e-1dd5-4d58-a974-c2afcfd662c8}, !- Space Name
  Outdoors,                               !- Outside Boundary Condition
  ,                                       !- Outside Boundary Condition Object
  SunExposed,                             !- Sun Exposure
  WindExposed,                            !- Wind Exposure
  ,                                       !- View Factor to Ground
  ,                                       !- Number of Vertices
  0, -32.2628571428571, 1.24875,          !- X,Y,Z Vertex 1 {m}
  0, -32.2628571428571, 0,                !- X,Y,Z Vertex 2 {m}
  0, -43.0171428571429, 0,                !- X,Y,Z Vertex 3 {m}
  0, -43.0171428571429, 1.24875;          !- X,Y,Z Vertex 4 {m}

OS:Surface,
  {7bf900b5-71b6-4da5-b8fe-68b8d6c6bdcc}, !- Handle
  Surface 23,                             !- Name
  Wall,                                   !- Surface Type
  ,                                       !- Construction Name
  {d8ed960e-1dd5-4d58-a974-c2afcfd662c8}, !- Space Name
  Outdoors,                               !- Outside Boundary Condition
  ,                                       !- Outside Boundary Condition Object
  SunExposed,                             !- Sun Exposure
  WindExposed,                            !- Wind Exposure
  ,                                       !- View Factor to Ground
  ,                                       !- Number of Vertices
  0, -21.5085714285714, 1.24875,          !- X,Y,Z Vertex 1 {m}
  0, -21.5085714285714, 0,                !- X,Y,Z Vertex 2 {m}
  0, -32.2628571428571, 0,                !- X,Y,Z Vertex 3 {m}
  0, -32.2628571428571, 1.24875;          !- X,Y,Z Vertex 4 {m}

OS:Surface,
  {6e86bfb5-f959-41ad-8067-e383ab2a731e}, !- Handle
  Surface 24,                             !- Name
  Wall,                                   !- Surface Type
  ,                                       !- Construction Name
  {d8ed960e-1dd5-4d58-a974-c2afcfd662c8}, !- Space Name
  Outdoors,                               !- Outside Boundary Condition
  ,                                       !- Outside Boundary Condition Object
  SunExposed,                             !- Sun Exposure
  WindExposed,                            !- Wind Exposure
  ,                                       !- View Factor to Ground
  ,                                       !- Number of Vertices
  0, -10.7542857142857, 1.24875,          !- X,Y,Z Vertex 1 {m}
  0, -10.7542857142857, 0,                !- X,Y,Z Vertex 2 {m}
  0, -21.5085714285714, 0,                !- X,Y,Z Vertex 3 {m}
  0, -21.5085714285714, 1.24875;          !- X,Y,Z Vertex 4 {m}

OS:Surface,
  {30848caf-7278-4779-a73c-c026b04eaa30}, !- Handle
  Surface 25,                             !- Name
  Wall,                                   !- Surface Type
  ,                                       !- Construction Name
  {d8ed960e-1dd5-4d58-a974-c2afcfd662c8}, !- Space Name
  Outdoors,                               !- Outside Boundary Condition
  ,                                       !- Outside Boundary Condition Object
  SunExposed,                             !- Sun Exposure
  WindExposed,                            !- Wind Exposure
  ,                                       !- View Factor to Ground
  ,                                       !- Number of Vertices
  0, 0, 1.24875,                          !- X,Y,Z Vertex 1 {m}
  0, 0, 0,                                !- X,Y,Z Vertex 2 {m}
  0, -10.7542857142857, 0,                !- X,Y,Z Vertex 3 {m}
  0, -10.7542857142857, 1.24875;          !- X,Y,Z Vertex 4 {m}

OS:BuildingStory,
  {7be26c4f-71e3-4963-9f69-a164d3583e31}, !- Handle
  Story 2,                                !- Name
  1.24875,                                !- Nominal Z Coordinate {m}
  0.8325,                                 !- Nominal Floor to Floor Height {m}
  ,                                       !- Default Construction Set Name
  ,                                       !- Default Schedule Set Name
  {c134045c-5f78-4017-ad33-8fc5200fbac9}; !- Group Rendering Name

OS:Space,
  {b219f108-668b-42a7-a1d0-448d665c1829}, !- Handle
  0 Core Space 1,                         !- Name
  ,                                       !- Space Type Name
  ,                                       !- Default Construction Set Name
  ,                                       !- Default Schedule Set Name
  -0,                                     !- Direction of Relative North {deg}
  -29.26,                                 !- X Origin {m}
  37.64,                                  !- Y Origin {m}
  1.24875,                                !- Z Origin {m}
  {7be26c4f-71e3-4963-9f69-a164d3583e31}, !- Building Story Name
  {c6c13fcc-1969-4c40-80eb-40a9109d7d0b}; !- Thermal Zone Name

OS:Surface,
  {e8d4d215-37ef-4fc9-9241-e33b9c1648c6}, !- Handle
  Surface 28,                             !- Name
  Wall,                                   !- Surface Type
  ,                                       !- Construction Name
  {b219f108-668b-42a7-a1d0-448d665c1829}, !- Space Name
  Outdoors,                               !- Outside Boundary Condition
  ,                                       !- Outside Boundary Condition Object
  SunExposed,                             !- Sun Exposure
  WindExposed,                            !- Wind Exposure
  ,                                       !- View Factor to Ground
  ,                                       !- Number of Vertices
  11.704, 0, 0.8325,                      !- X,Y,Z Vertex 1 {m}
  11.704, 0, 0,                           !- X,Y,Z Vertex 2 {m}
  0, 0, 0,                                !- X,Y,Z Vertex 3 {m}
  0, 0, 0.8325;                           !- X,Y,Z Vertex 4 {m}

OS:Surface,
  {c7f5cf04-4a08-4815-863d-a6536ec84666}, !- Handle
  Surface 29,                             !- Name
  Wall,                                   !- Surface Type
  ,                                       !- Construction Name
  {b219f108-668b-42a7-a1d0-448d665c1829}, !- Space Name
  Outdoors,                               !- Outside Boundary Condition
  ,                                       !- Outside Boundary Condition Object
  SunExposed,                             !- Sun Exposure
  WindExposed,                            !- Wind Exposure
  ,                                       !- View Factor to Ground
  ,                                       !- Number of Vertices
  23.408, 0, 0.8325,                      !- X,Y,Z Vertex 1 {m}
  23.408, 0, 0,                           !- X,Y,Z Vertex 2 {m}
  11.704, 0, 0,                           !- X,Y,Z Vertex 3 {m}
  11.704, 0, 0.8325;                      !- X,Y,Z Vertex 4 {m}

OS:Surface,
  {286a623d-81f2-4f7b-bff3-e923e5243d8d}, !- Handle
  Surface 30,                             !- Name
  Wall,                                   !- Surface Type
  ,                                       !- Construction Name
  {b219f108-668b-42a7-a1d0-448d665c1829}, !- Space Name
  Outdoors,                               !- Outside Boundary Condition
  ,                                       !- Outside Boundary Condition Object
  SunExposed,                             !- Sun Exposure
  WindExposed,                            !- Wind Exposure
  ,                                       !- View Factor to Ground
  ,                                       !- Number of Vertices
  35.112, 0, 0.8325,                      !- X,Y,Z Vertex 1 {m}
  35.112, 0, 0,                           !- X,Y,Z Vertex 2 {m}
  23.408, 0, 0,                           !- X,Y,Z Vertex 3 {m}
  23.408, 0, 0.8325;                      !- X,Y,Z Vertex 4 {m}

OS:Surface,
  {2c15193b-d7db-40dd-99c8-c7f657177600}, !- Handle
  Surface 31,                             !- Name
  Wall,                                   !- Surface Type
  ,                                       !- Construction Name
  {b219f108-668b-42a7-a1d0-448d665c1829}, !- Space Name
  Outdoors,                               !- Outside Boundary Condition
  ,                                       !- Outside Boundary Condition Object
  SunExposed,                             !- Sun Exposure
  WindExposed,                            !- Wind Exposure
  ,                                       !- View Factor to Ground
  ,                                       !- Number of Vertices
  46.816, 0, 0.8325,                      !- X,Y,Z Vertex 1 {m}
  46.816, 0, 0,                           !- X,Y,Z Vertex 2 {m}
  35.112, 0, 0,                           !- X,Y,Z Vertex 3 {m}
  35.112, 0, 0.8325;                      !- X,Y,Z Vertex 4 {m}

OS:Surface,