
OS:Version,
  {75f8eeb0-49bc-4b72-8ab1-0837c825032b}, !- Handle
  1.7.0;                                  !- Version Identifier

OS:BuildingStory,
  {2f21d46b-b0bd-40ee-9ac9-6d48074d49a2}, !- Handle
  Story 1,                                !- Name
  0,                                      !- Nominal Z Coordinate {m}
  1.24875,                                !- Nominal Floor to Floor Height {m}
  ,                                       !- Default Construction Set Name
  ,                                       !- Default Schedule Set Name
  {2fdfe16e-1355-4ea5-9f79-d3faef42105c}; !- Group Rendering Name

OS:Space,
  {b4efade9-8863-4a01-bdac-af8200c6984c}, !- Handle
  0 Core Space,                           !- Name
  ,                                       !- Space Type Name
  ,                                       !- Default Construction Set Name
  ,                                       !- Default Schedule Set Name
  -0,                                     !- Direction of Relative North {deg}
  51.7248610437959,                       !- X Origin {m}
  100.996061556875,                       !- Y Origin {m}
  0,                                      !- Z Origin {m}
  {2f21d46b-b0bd-40ee-9ac9-6d48074d49a2}, !- Building Story Name
  {93326f5d-957d-48f0-90d5-4826a8573500}; !- Thermal Zone Name

OS:Surface,
  {97929a91-7127-4568-b5b9-5b09693a0943}, !- Handle
  Surface 1,                              !- Name
  Floor,                                  !- Surface Type
  ,                                       !- Construction Name
  {b4efade9-8863-4a01-bdac-af8200c6984c}, !- Space Name
  Ground,                                 !- Outside Boundary Condition
  ,                                       !- Outside Boundary Condition Object
  NoSun,                                  !- Sun Exposure
  NoWind,                                 !- Wind Exposure
  ,                                       !- View Factor to Ground
  ,                                       !- Number of Vertices
  -4.2632564145606e-14, 4.12114786740858e-13, 0, !- X,Y,Z Vertex 1 {m}
  41.3728177672249, -41.3728177672249, 0, !- X,Y,Z Vertex 2 {m}
  -11.8652517883102, -94.6108873227601, 0, !- X,Y,Z Vertex 3 {m}
  -53.2380695555352, -53.2380695555352, 0; !- X,Y,Z Vertex 4 {m}

OS:Surface,
  {c9351974-6545-4114-b71e-6f2eb45d2bd4}, !- Handle
  Surface 2,                              !- Name
  Wall,                                   !- Surface Type
  ,                                       !- Construction Name
  {b4efade9-8863-4a01-bdac-af8200c6984c}, !- Space Name
  Outdoors,                               !- Outside Boundary Condition
  ,                                       !- Outside Boundary Condition Object
  SunExposed,                             !- Sun Exposure
  WindExposed,                            !- Wind Exposure
  ,                                       !- View Factor to Ground
  ,                                       !- Number of Vertices
  8.27456355344496, -8.27456355344499, 1.24875, !- X,Y,Z Vertex 1 {m}
  8.27456355344496, -8.27456355344499, 0, !- X,Y,Z Vertex 2 {m}
  -4.28393270927588e-14, 4.11908023793705e-13, 0, !- X,Y,Z Vertex 3 {m}
  -4.28393270927588e-14, 4.11908023793705e-13, 1.24875; !- X,Y,Z Vertex 4 {m}

OS:Surface,
  {111b2658-8523-45ff-bdb9-def98732edaf}, !- Handle
  Surface 3,                              !- Name
  Wall,                                   !- Surface Type
  ,                                       !- Construction Name
  {b4efade9-8863-4a01-bdac-af8200c6984c}, !- Space Name
  Outdoors,                               !- Outside Boundary Condition
  ,                                       !- Outside Boundary Condition Object
  SunExposed,                             !- Sun Exposure
  WindExposed,                            !- Wind Exposure
  ,                                       !- View Factor to Ground
  ,                                       !- Number of Vertices
  16.54912710689, -16.54912710689, 1.24875, !- X,Y,Z Vertex 1 {m}
  16.54912710689, -16.54912710689, 0,     !- X,Y,Z Vertex 2 {m}
  8.27456355344496, -8.27456355344499, 0, !- X,Y,Z Vertex 3 {m}
  8.27456355344496, -8.27456355344499, 1.24875; !- X,Y,Z Vertex 4 {m}

OS:Surface,
  {151ea5c2-740d-4b15-8c94-58d4dfba57b1}, !- Handle
  Surface 4,                              !- Name
  Wall,                                   !- Surface Type
  ,                                       !- Construction Name
  {b4efade9-8863-4a01-bdac-af8200c6984c}, !- Space Name
  Outdoors,                               !- Outside Boundary Condition
  ,                                       !- Outside Boundary Condition Object
  SunExposed,                             !- Sun Exposure
  WindExposed,                            !- Wind Exposure
  ,                                       !- View Factor to Ground
  ,                                       !- Number of Vertices
  24.823690660335, -24.8236906603349, 1.24875, !- X,Y,Z Vertex 1 {m}
  24.823690660335, -24.8236906603349, 0,  !- X,Y,Z Vertex 2 {m}
  16.54912710689, -16.54912710689, 0,     !- X,Y,Z Vertex 3 {m}
  16.54912710689, -16.54912710689, 1.24875; !- X,Y,Z Vertex 4 {m}

OS:Surface,
  {659a5ba5-6723-462d-b4b7-ab16f68d74d7}, !- Handle
  Surface 5,                              !- Name
  Wall,                                   !- Surface Type
  ,                                       !- Construction Name
  {b4efade9-8863-4a01-bdac-af8200c6984c}, !- Space Name
  Outdoors,                               !- Outside Boundary Condition
  ,                                       !- Outside Boundary Condition Object
  SunExposed,                             !- Sun Exposure
  WindExposed,                            !- Wind Exposure
  ,                                       !- View Factor to Ground
  ,                                       !- Number of Vertices
  33.09825421378, -33.0982542137799, 1.24875, !- X,Y,Z Vertex 1 {m}
  33.09825421378, -33.0982542137799, 0,   !- X,Y,Z Vertex 2 {m}
  24.823690660335, -24.8236906603349, 0,  !- X,Y,Z Vertex 3 {m}
  24.823690660335, -24.8236906603349, 1.24875; !- X,Y,Z Vertex 4 {m}

OS:Surface,
  {a7097656-aefb-4d89-9cd0-3ca293b94133}, !- Handle
  Surface 6,                              !- Name
  Wall,                                   !- Surface Type
  ,                                       !- Construction Name
  {b4efade9-8863-4a01-bdac-af8200c6984c}, !- Space Name
  Outdoors,                               !- Outside Boundary Condition
  ,                                       !- Outside Boundary Condition Object
  SunExposed,                             !- Sun Exposure
  WindExposed,                            !- Wind Exposure
  ,                                       !- View Factor to Ground
  ,                                       !- Number of Vertices
  41.3728177672249, -41.3728177672249, 1.24875, !- X,Y,Z Vertex 1 {m}
  41.3728177672249, -41.3728177672249, 0, !- X,Y,Z Vertex 2 {m}
  33.09825421378, -33.0982542137799, 0,   !- X,Y,Z Vertex 3 {m}
  33.09825421378, -33.0982542137799, 1.24875; !- X,Y,Z Vertex 4 {m}

OS:Surface,
  {654baf48-0e67-46f2-abbe-5aa8b54543d2}, !- Handle
  Surface 7,                              !- Name
  Wall,                                   !- Surface Type
  ,                                       !- Construction Name
  {b4efade9-8863-4a01-bdac-af8200c6984c}, !- Space Name
  Outdoors,                               !- Outside Boundary Condition
  ,                                       !- Outside Boundary Condition Object
  SunExposed,                             !- Sun Exposure
  WindExposed,                            !- Wind Exposure
  ,                                       !- View Factor to Ground
  ,                                       !- Number of Vertices
  33.7673792592913, -48.9782562751585, 1.24875, !- X,Y,Z Vertex 1 {m}
  33.7673792592913, -48.9782562751585, 0, !- X,Y,Z Vertex 2 {m}
  41.3728177672249, -41.3728177672249, 0, !- X,Y,Z Vertex 3 {m}
  41.3728177672249, -41.3728177672249, 1.24875; !- X,Y,Z Vertex 4 {m}

OS:Surface,
  {cb729561-0cad-4444-856d-480320f2f37f}, !- Handle
  Surface 8,                              !- Name
  Wall,                                   !- Surface Type
  ,                                       !- Construction Name
  {b4efade9-8863-4a01-bdac-af8200c6984c}, !- Space Name
  Outdoors,                               !- Outside Boundary Condition
  ,                                       !- Outside Boundary Condition Object
  SunExposed,                             !- Sun Exposure
  WindExposed,                            !- Wind Exposure
  ,                                       !- View Factor to Ground
  ,                                       !- Number of Vertices
  26.1619407513578, -56.5836947830921, 1.24875, !- X,Y,Z Vertex 1 {m}
  26.1619407513578, -56.5836947830921, 0, !- X,Y,Z Vertex 2 {m}
  33.7673792592913, -48.9782562751585, 0, !- X,Y,Z Vertex 3 {m}
  33.7673792592913, -48.9782562751585, 1.24875; !- X,Y,Z Vertex 4 {m}

OS:Surface,
  {7adc3ec2-2903-448e-ad18-8aa968619efa}, !- Handle
  Surface 9,                              !- Name
  Wall,                                   !- Surface Type
  ,                                       !- Construction Name
  {b4efade9-8863-4a01-bdac-af8200c6984c}, !- Space Name
  Outdoors,                               !- Outside Boundary Condition
  ,                                       !- Outside Boundary Condition Object
  SunExposed,                             !- Sun Exposure
  WindExposed,                            !- Wind Exposure
  ,                                       !- View Factor to Ground
  ,                                       !- Number of Vertices
  18.5565022434242, -64.1891332910257, 1.24875, !- X,Y,Z Vertex 1 {m}
  18.5565022434242, -64.1891332910257, 0, !- X,Y,Z Vertex 2 {m}
  26.1619407513578, -56.5836947830921, 0, !- X,Y,Z Vertex 3 {m}
  26.1619407513578, -56.5836947830921, 1.24875; !- X,Y,Z Vertex 4 {m}

OS:Surface,
  {8d28e55b-b991-48d7-a2b1-1d4084604bd7}, !- Handle
  Surface 10,                             !- Name
  Wall,                                   !- Surface Type
  ,                                       !- Construction Name
  {b4efade9-8863-4a01-bdac-af8200c6984c}, !- Space Name
  Outdoors,                               !- Outside Boundary Condition
  ,                                       !- Outside Boundary Condition Object
  SunExposed,                             !- Sun Exposure
  WindExposed,                            !- Wind Exposure
  ,                                       !- View Factor to Ground
  ,                                       !- Number of Vertices
  10.9510637354906, -71.7945717989593, 1.24875, !- X,Y,Z Vertex 1 {m}
  10.9510637354906, -71.7945717989593, 0, !- X,Y,Z Vertex 2 {m}
  18.5565022434242, -64.1891332910257, 0, !- X,Y,Z Vertex 3 {m}
  18.5565022434242, -64.1891332910257, 1.24875; !- X,Y,Z Vertex 4 {m}

OS:Surface,
  {8831d613-fa94-4610-bd64-811c80804608}, !- Handle
  Surface 11,                             !- Name
  Wall,                                   !- Surface Type
  ,                                       !- Construction Name
  {b4efade9-8863-4a01-bdac-af8200c6984c}, !- Space Name
  Outdoors,                               !- Outside Boundary Condition
  ,                                       !- Outside Boundary Condition Object
  SunExposed,                             !- Sun Exposure
  WindExposed,                            !- Wind Exposure
  ,                                       !- View Factor to Ground
  ,                                       !- Number of Vertices
  3.34562522755696, -79.4000103068929, 1.24875, !- X,Y,Z Vertex 1 {m}
  3.34562522755696, -79.4000103068929, 0, !- X,Y,Z Vertex 2 {m}
  10.9510637354906, -71.7945717989593, 0, !- X,Y,Z Vertex 3 {m}
  10.9510637354906, -71.7945717989593, 1.24875; !- X,Y,Z Vertex 4 {m}

OS:Surface,
  {fb9c095f-73f5-46a8-882d-6161d8d596dd}, !- Handle
  Surface 12,                             !- Name
  Wall,                                   !- Surface Type
  ,                                       !- Construction Name
  {b4efade9-8863-4a01-bdac-af8200c6984c}, !- Space Name
  Outdoors,                               !- Outside Boundary Condition
  ,                                       !- Outside Boundary Condition Object
  SunExposed,                             !- Sun Exposure
  WindExposed,                            !- Wind Exposure
  ,                                       !- View Factor to Ground
  ,                                       !- Number of Vertices
  -4.25981328037664, -87.0054488148265, 1.24875, !- X,Y,Z Vertex 1 {m}
  -4.25981328037664, -87.0054488148265, 0, !- X,Y,Z Vertex 2 {m}
  3.34562522755696, -79.4000103068929, 0, !- X,Y,Z Vertex 3 {m}
  3.34562522755696, -79.4000103068929, 1.24875; !- X,Y,Z Vertex 4 {m}

OS:Surface,
  {75b3633b-129a-4df5-a3dd-a1057fba270d}, !- Handle
  Surface 13,                             !- Name
  Wall,                                   !- Surface Type
  ,                                       !- Construction Name
  {b4efade9-8863-4a01-bdac-af8200c6984c}, !- Space Name
  Outdoors,                               !- Outside Boundary Condition
  ,                                       !- Outside Boundary Condition Object
  SunExposed,                             !- Sun Exposure
  WindExposed,                            !- Wind Exposure
  ,                                       !- View Factor to Ground
  ,                                       !- Number of Vertices
  -11.8652517883102, -94.6108873227601, 1.24875, !- X,Y,Z Vertex 1 {m}
  -11.8652517883102, -94.6108873227601, 0, !- X,Y,Z Vertex 2 {m}
  -4.25981328037664, -87.0054488148265, 0, !- X,Y,Z Vertex 3 {m}
  -4.25981328037664, -87.0054488148265, 1.24875; !- X,Y,Z Vertex 4 {m}

OS:Surface,
  {3853ebc0-e497-4e2b-a395-77a0f7db7a5a}, !- Handle
  Surface 14,                             !- Name
  Wall,                                   !- Surface Type
  ,                                       !- Construction Name
  {b4efade9-8863-4a01-bdac-af8200c6984c}, !- Space Name
  Outdoors,                               !- Outside Boundary Condition
  ,                                       !- Outside Boundary Condition Object
  SunExposed,                             !- Sun Exposure
  WindExposed,                            !- Wind Exposure
  ,                                       !- View Factor to Ground
  ,                                       !- Number of Vertices
  -20.1398153417552, -86.3363237693151, 1.24875, !- X,Y,Z Vertex 1 {m}
  -20.1398153417552, -86.3363237693151, 0, !- X,Y,Z Vertex 2 {m}
  -11.8652517883102, -94.6108873227601, 0, !- X,Y,Z Vertex 3 {m}
  -11.8652517883102, -94.6108873227601, 1.24875; !- X,Y,Z Vertex 4 {m}

OS:Surface,
  {8c3750b5-d0d0-48e7-a457-6e4f8744ad35}, !- Handle
  Surface 15,                             !- Name
  Wall,                                   !- Surface Type
  ,                                       !- Construction Name
  {b4efade9-8863-4a01-bdac-af8200c6984c}, !- Space Name
  Outdoors,                               !- Outside Boundary Condition
  ,                                       !- Outside Boundary Condition Object
  SunExposed,                             !- Sun Exposure
  WindExposed,                            !- Wind Exposure
  ,                                       !- View Factor to Ground
  ,                                       !- Number of Vertices
  -28.4143788952002, -78.0617602158701, 1.24875, !- X,Y,Z Vertex 1 {m}
  -28.4143788952002, -78.0617602158701, 0, !- X,Y,Z Vertex 2 {m}
  -20.1398153417552, -86.3363237693151, 0, !- X,Y,Z Vertex 3 {m}
  -20.1398153417552, -86.3363237693151, 1.24875; !- X,Y,Z Vertex 4 {m}

OS:Surface,
  {a795f208-828e-4e7b-88c5-6edbf00a7658}, !- Handle
  Surface 16,                             !- Name
  Wall,                                   !- Surface Type
  ,                                       !- Construction Name
  {b4efade9-8863-4a01-bdac-af8200c6984c}, !- Space Name
  Outdoors,                               !- Outside Boundary Condition
  ,                                       !- Outside Boundary Condition Object
  SunExposed,                             !- Sun Exposure
  WindExposed,                            !- Wind Exposure
  ,                                       !- View Factor to Ground
  ,                                       !- Number of Vertices
  -36.6889424486452, -69.7871966624251, 1.24875, !- X,Y,Z Vertex 1 {m}
  -36.6889424486452, -69.7871966624251, 0, !- X,Y,Z Vertex 2 {m}
  -28.4143788952002, -78.0617602158701, 0, !- X,Y,Z Vertex 3 {m}
  -28.4143788952002, -78.0617602158701, 1.24875; !- X,Y,Z Vertex 4 {m}

OS:Surface,
  {03eb2791-e79a-47e3-b090-3af6b037a43d}, !- Handle
  Surface 17,                             !- Name
  Wall,                                   !- Surface Type
  ,                                       !- Construction Name
  {b4efade9-8863-4a01-bdac-af8200c6984c}, !- Space Name
  Outdoors,                               !- Outside Boundary Condition
  ,                                       !- Outside Boundary Condition Object
  SunExposed,                             !- Sun Exposure
  WindExposed,                            !- Wind Exposure
  ,                                       !- View Factor to Ground
  ,                                       !- Number of Vertices
  -44.9635060020902, -61.5126331089802, 1.24875, !- X,Y,Z Vertex 1 {m}
  -44.9635060020902, -61.5126331089802, 0, !- X,Y,Z Vertex 2 {m}
  -36.6889424486452, -69.7871966624251, 0, !- X,Y,Z Vertex 3 {m}
  -36.6889424486452, -69.7871966624251, 1.24875; !- X,Y,Z Vertex 4 {m}

OS:Surface,
  {fd17f7cb-5c27-4550-895c-cbf5d9272680}, !- Handle
  Surface 18,                             !- Name
  Wall,                                   !- Surface Type
  ,                                       !- Construction Name
  {b4efade9-8863-4a01-bdac-af8200c6984c}, !- Space Name
  Outdoors,                               !- Outside Boundary Condition
  ,                                       !- Outside Boundary Condition Object
  SunExposed,                             !- Sun Exposure
  WindExposed,                            !- Wind Exposure
  ,                                       !- View Factor to Ground
  ,                                       !- Number of Vertices
  -53.2380695555352, -53.2380695555352, 1.24875, !- X,Y,Z Vertex 1 {m}
  -53.2380695555352, -53.2380695555352, 0, !- X,Y,Z Vertex 2 {m}
  -44.9635060020902, -61.5126331089802, 0, !- X,Y,Z Vertex 3 {m}
  -44.9635060020902, -61.5126331089802, 1.24875; !- X,Y,Z Vertex 4 {m}

OS:Surface,
  {65817289-ca64-4d85-99a6-9cd5ef7b2429}, !- Handle
  Surface 19,                             !- Name
  Wall,                                   !- Surface Type
  ,                                       !- Construction Name
  {b4efade9-8863-4a01-bdac-af8200c6984c}, !- Space Name
  Outdoors,                               !- Outside Boundary Condition
  ,                                       !- Outside Boundary Condition Object
  SunExposed,                             !- Sun Exposure
  WindExposed,                            !- Wind Exposure
  ,                                       !- View Factor to Ground
  ,                                       !- Number of Vertices
  -45.6326310476016, -45.6326310476016, 1.24875, !- X,Y,Z Vertex 1 {m}
  -45.6326310476016, -45.6326310476016, 0, !- X,Y,Z Vertex 2 {m}
  -53.2380695555352, -53.2380695555352, 0, !- X,Y,Z Vertex 3 {m}
  -53.2380695555352, -53.2380695555352, 1.24875; !- X,Y,Z Vertex 4 {m}

OS:Surface,
  {e1c5c639-1491-40b1-9eaa-bddcdcb3733b}, !- Handle
  Surface 20,                             !- Name
  Wall,                                   !- Surface Type
  ,                                       !- Construction Name
  {b4efade9-8863-4a01-bdac-af8200c6984c}, !- Space Name
  Outdoors,                               !- Outside Boundary Condition
  ,                                       !- Outside Boundary Condition Object
  SunExposed,                             !- Sun Exposure
  WindExposed,                            !- Wind Exposure
  ,                                       !- View Factor to Ground
  ,                                       !- Number of Vertices
  -38.0271925396679, -38.027192539668, 1.24875, !- X,Y,Z Vertex 1 {m}
  -38.0271925396679, -38.027192539668, 0, !- X,Y,Z Vertex 2 {m}
  -45.6326310476016, -45.6326310476016, 0, !- X,Y,Z Vertex 3 {m}
  -45.6326310476016, -45.6326310476016, 1.24875; !- X,Y,Z Vertex 4 {m}

OS:Surface,
  {c67d8d69-d894-4403-bd00-258165379f4c}, !- Handle
  Surface 21,                             !- Name
  Wall,                                   !- Surface Type
  ,                                       !- Construction Name
  {b4efade9-8863-4a01-bdac-af8200c6984c}, !- Space Name
  Outdoors,                               !- Outside Boundary Condition
  ,                                       !- Outside Boundary Condition Object
  SunExposed,                             !- Sun Exposure
  WindExposed,                            !- Wind Exposure
  ,                                       !- View Factor to Ground
  ,                                       !- Number of Vertices
  -30.4217540317343, -30.4217540317344, 1.24875, !- X,Y,Z Vertex 1 {m}
  -30.4217540317343, -30.4217540317344, 0, !- X,Y,Z Vertex 2 {m}
  -38.0271925396679, -38.027192539668, 0, !- X,Y,Z Vertex 3 {m}
  -38.0271925396679, -38.027192539668, 1.24875; !- X,Y,Z Vertex 4 {m}

OS:Surface,
  {32b6e915-b902-4513-b8cc-871b034ae03d}, !- Handle
  Surface 22,                             !- Name
  Wall,                                   !- Surface Type
  ,                                       !- Construction Name
  {b4efade9-8863-4a01-bdac-af8200c6984c}, !- Space Name
  Outdoors,                               !- Outside Boundary Condition
  ,                                       !- Outside Boundary Condition Object
  SunExposed,                             !- Sun Exposure
  WindExposed,                            !- Wind Exposure
  ,                                       !- View Factor to Ground
  ,                                       !- Number of Vertices
  -22.8163155238007, -22.8163155238008, 1.24875, !- X,Y,Z Vertex 1 {m}
  -22.8163155238007, -22.8163155238008, 0, !- X,Y,Z Vertex 2 {m}
  -30.4217540317343, -30.4217540317344, 0, !- X,Y,Z Vertex 3 {m}
  -30.4217540317343, -30.4217540317344, 1.24875; !- X,Y,Z Vertex 4 {m}

OS:Surface,
  {84910899-0fe4-4e55-bf27-ed2757ded10b}, !- Handle
  Surface 23,                             !- Name
  Wall,                                   !- Surface Type
  ,                                       !- Construction Name
  {b4efade9-8863-4a01-bdac-af8200c6984c}, !- Space Name
  Outdoors,                               !- Outside Boundary Condition
  ,                                       !- Outside Boundary Condition Object
  SunExposed,                             !- Sun Exposure
  WindExposed,                            !- Wind Exposure
  ,                                       !- View Factor to Ground
  ,                                       !- Number of Vertices
  -15.2108770158672, -15.2108770158672, 1.24875, !- X,Y,Z Vertex 1 {m}
  -15.2108770158672, -15.2108770158672, 0, !- X,Y,Z Vertex 2 {m}
  -22.8163155238007, -22.8163155238008, 0, !- X,Y,Z Vertex 3 {m}
  -22.8163155238007, -22.8163155238008, 1.24875; !- X,Y,Z Vertex 4 {m}

OS:Surface,
  {510027c2-822e-4e2b-bc93-5ec47af4d7f9}, !- Handle
  Surface 24,                             !- Name
  Wall,                                   !- Surface Type
  ,                                       !- Construction Name
  {b4efade9-8863-4a01-bdac-af8200c6984c}, !- Space Name
  Outdoors,                               !- Outside Boundary Condition
  ,                                       !- Outside Boundary Condition Object
  SunExposed,                             !- Sun Exposure
  WindExposed,                            !- Wind Exposure
  ,                                       !- View Factor to Ground
  ,                                       !- Number of Vertices
  -7.60543850793364, -7.6054385079336, 1.24875, !- X,Y,Z Vertex 1 {m}
  -7.60543850793364, -7.6054385079336, 0, !- X,Y,Z Vertex 2 {m}
  -15.2108770158672, -15.2108770158672, 0, !- X,Y,Z Vertex 3 {m}
  -15.2108770158672, -15.2108770158672, 1.24875; !- X,Y,Z Vertex 4 {m}

OS:Surface,
  {88034c66-83ce-44f6-86b5-6f2740279614}, !- Handle
  Surface 25,                             !- Name
  Wall,                                   !- Surface Type
  ,                                       !- Construction Name
  {b4efade9-8863-4a01-bdac-af8200c6984c}, !- Space Name
  Outdoors,                               !- Outside Boundary Condition
  ,                                       !- Outside Boundary Condition Object
  SunExposed,                             !- Sun Exposure
  WindExposed,                            !- Wind Exposure
  ,                                       !- View Factor to Ground
  ,                                       !- Number of Vertices
  -4.2927821936981e-14, 4.12410044532233e-13, 1.24875, !- X,Y,Z Vertex 1 {m}
  -4.2927821936981e-14, 4.12410044532233e-13, 0, !- X,Y,Z Vertex 2 {m}
  -7.60543850793364, -7.6054385079336, 0, !- X,Y,Z Vertex 3 {m}
  -7.60543850793364, -7.6054385079336, 1.24875; !- X,Y,Z Vertex 4 {m}

OS:Surface,
  {fe71f048-b063-4b3b-941f-5ebfd83a6efa}, !- Handle
  Surface 26,                             !- Name
  RoofCeiling,                            !- Surface Type
  ,                                       !- Construction Name
  {b4efade9-8863-4a01-bdac-af8200c6984c}, !- Space Name
  Surface,                                !- Outside Boundary Condition
  {bf54fcea-940b-46e6-b3a3-d75c9b218734}, !- Outside Boundary Condition Object
  NoSun,                                  !- Sun Exposure
  NoWind,                                 !- Wind Exposure
  ,                                       !- View Factor to Ground
  ,                                       !- Number of Vertices
  -11.8652517883102, -94.6108873227601, 1.24875, !- X,Y,Z Vertex 1 {m}
  41.3728177672249, -41.3728177672249, 1.24875, !- X,Y,Z Vertex 2 {m}
  -4.2632564145606e-14, 4.12114786740858e-13, 1.24875, !- X,Y,Z Vertex 3 {m}
  -53.2380695555352, -53.2380695555352, 1.24875; !- X,Y,Z Vertex 4 {m}

OS:BuildingStory,
  {222c5d89-3529-4544-8a91-21314036891e}, !- Handle
  Story 2,                                !- Name
  1.24875,                                !- Nominal Z Coordinate {m}
  0.8325,                                 !- Nominal Floor to Floor Height {m}
  ,                                       !- Default Construction Set Name
  ,                                       !- Default Schedule Set Name
  {ab1a601e-a0fd-4cfe-a071-cb73f4f3d71c}; !- Group Rendering Name

OS:Space,
  {11a1b27b-5ad0-42e8-8347-a0c0b6482776}, !- Handle
  0 Core Space 1,                         !- Name
  ,                                       !- Space Type Name
  ,                                       !- Default Construction Set Name
  ,                                       !- Default Schedule Set Name
  -0,                                     !- Direction of Relative North {deg}
  51.7248610437959,                       !- X Origin {m}
  100.996061556875,                       !- Y Origin {m}
  1.24875,                                !- Z Origin {m}
  {222c5d89-3529-4544-8a91-21314036891e}, !- Building Story Name
  {41445450-246d-46f8-9c64-f0f0a4159bda}; !- Thermal Zone Name

OS:Surface,
  {bf54fcea-940b-46e6-b3a3-d75c9b218734}, !- Handle
  Surface 27,                             !- Name
  Floor,                                  !- Surface Type
  ,                                       !- Construction Name
  {11a1b27b-5ad0-42e8-8347-a0c0b6482776}, !- Space Name
  Surface,                                !- Outside Boundary Condition
  {fe71f048-b063-4b3b-941f-5ebfd83a6efa}, !- Outside Boundary Condition Object
  NoSun,                                  !- Sun Exposure
  NoWind,                                 !- Wind Exposure
  ,                                       !- View Factor to Ground
  ,                                       !- Number of Vertices
  -4.2632564145606e-14, 4.12114786740858e-13, 0, !- X,Y,Z Vertex 1 {m}
  41.3728177672249, -41.3728177672249, 0, !- X,Y,Z Vertex 2 {m}
  -11.8652517883102, -94.6108873227601, 0, !- X,Y,Z Vertex 3 {m}
  -53.2380695555352, -53.2380695555352, 0; !- X,Y,Z Vertex 4 {m}

OS:Surface,
  {10b14979-81ce-45a4-ae67-d770841de2b3}, !- Handle
  Surface 28,                             !- Name
  Wall,                                   !- Surface Type
  ,                                       !- Construction Name
  {11a1b27b-5ad0-42e8-8347-a0c0b6482776}, !- Space Name
  Outdoors,                               !- Outside Boundary Condition
  ,                                       !- Outside Boundary Condition Object
  SunExposed,                             !- Sun Exposure
  WindExposed,                            !- Wind Exposure
  ,                                       !- View Factor to Ground
  ,                                       !- Number of Vertices
  8.27456355344496, -8.27456355344499, 0.8325, !- X,Y,Z Vertex 1 {m}
  8.27456355344496, -8.27456355344499, 0, !- X,Y,Z Vertex 2 {m}
  -4.28393270927588e-14, 4.11908023793705e-13, 0, !- X,Y,Z Vertex 3 {m}
  -4.28393270927588e-14, 4.11908023793705e-13, 0.8325; !- X,Y,Z Vertex 4 {m}

OS:Surface,
  {03e7b61f-09b3-418e-a395-015c121721f0}, !- Handle
  Surface 29,                             !- Name
  Wall,                                   !- Surface Type
  ,                                       !- Construction Name
  {11a1b27b-5ad0-42e8-8347-a0c0b6482776}, !- Space Name
  Outdoors,                               !- Outside Boundary Condition
  ,                                       !- Outside Boundary Condition Object
  SunExposed,                             !- Sun Exposure
  WindExposed,                            !- Wind Exposure