
OS:Version,
  {73c7fc6f-c948-4225-825b-68b15584f6fa}, !- Handle
  1.7.0;                                  !- Version Identifier

OS:BuildingStory,
  {c95fc269-74d8-4b80-8d40-7d288852f700}, !- Handle
  Rectangle:Story 1,                      !- Name
  0,                                      !- Nominal Z Coordinate {m}
  1.24875,                                !- Nominal Floor to Floor Height {m}
  ,                                       !- Default Construction Set Name
  ,                                       !- Default Schedule Set Name
  {c00cceae-7b69-4513-9ba7-280768b08cb1}; !- Group Rendering Name

OS:Space,
  {f654dd2b-841b-4f2b-bea3-e40d892e8c81}, !- Handle
  0 Core Space,                           !- Name
  ,                                       !- Space Type Name
  ,                                       !- Default Construction Set Name
  ,                                       !- Default Schedule Set Name
  -0,                                     !- Direction of Relative North {deg}
  5.92555482634326,                       !- X Origin {m}
  47.30544366138,                         !- Y Origin {m}
  0,                                      !- Z Origin {m}
  {c95fc269-74d8-4b80-8d40-7d288852f700}, !- Building Story Name
  {92e72da7-7fd1-41ad-8960-6dd652656a55}; !- Thermal Zone Name

OS:Surface,
  {39664356-5499-437d-bc41-c18740e84a0e}, !- Handle
  Surface 1,                              !- Name
  Floor,                                  !- Surface Type
  ,                                       !- Construction Name
  {f654dd2b-841b-4f2b-bea3-e40d892e8c81}, !- Space Name
  Ground,                                 !- Outside Boundary Condition
  ,                                       !- Outside Boundary Condition Object
  NoSun,                                  !- Sun Exposure
  NoWind,                                 !- Wind Exposure
  ,                                       !- View Factor to Ground
  ,                                       !- Number of Vertices
  -2.66453525910038e-15, -2.8421709430404e-14, 0, !- X,Y,Z Vertex 1 {m}
  41.3798888350367, -41.3798888350368, 0, !- X,Y,Z Vertex 2 {m}
  -11.8511096526865, -94.61088732276, 0,  !- X,Y,Z Vertex 3 {m}
  -53.2309984877233, -53.2309984877233, 0; !- X,Y,Z Vertex 4 {m}

OS:Surface,
  {07f88b7f-e311-45e7-beea-045448ad0b77}, !- Handle
  Surface 2,                              !- Name
  Wall,                                   !- Surface Type
  ,                                       !- Construction Name
  {f654dd2b-841b-4f2b-bea3-e40d892e8c81}, !- Space Name
  Outdoors,                               !- Outside Boundary Condition
  ,                                       !- Outside Boundary Condition Object
  SunExposed,                             !- Sun Exposure
  WindExposed,                            !- Wind Exposure
  ,                                       !- View Factor to Ground
  ,                                       !- Number of Vertices
  8.27597776700734, -8.27597776700733, 1.24875, !- X,Y,Z Vertex 1 {m}
  8.27597776700734, -8.27597776700733, 0, !- X,Y,Z Vertex 2 {m}
  -2.5102230945668e-15, -2.82673972658704e-14, 0, !- X,Y,Z Vertex 3 {m}
  -2.5102230945668e-15, -2.82673972658704e-14, 1.24875; !- X,Y,Z Vertex 4 {m}

OS:Surface,
  {1002fce2-8da1-4ece-8867-9fbf8d1ca2dc}, !- Handle
  Surface 3,                              !- Name
  Wall,                                   !- Surface Type
  ,                                       !- Construction Name
  {f654dd2b-841b-4f2b-bea3-e40d892e8c81}, !- Space Name
  Outdoors,                               !- Outside Boundary Condition
  ,                                       !- Outside Boundary Condition Object
  SunExposed,                             !- Sun Exposure
  WindExposed,                            !- Wind Exposure
  ,                                       !- View Factor to Ground
  ,                                       !- Number of Vertices
  16.5519555340147, -16.5519555340147, 1.24875, !- X,Y,Z Vertex 1 {m}
  16.5519555340147, -16.5519555340147, 0, !- X,Y,Z Vertex 2 {m}
  8.27597776700734, -8.27597776700733, 0, !- X,Y,Z Vertex 3 {m}
  8.27597776700734, -8.27597776700733, 1.24875; !- X,Y,Z Vertex 4 {m}

OS:Surface,
  {7803d1c9-0413-488e-92a0-f7566e8d148a}, !- Handle
  Surface 4,                              !- Name
  Wall,                                   !- Surface Type
  ,                                       !- Construction Name
  {f654dd2b-841b-4f2b-bea3-e40d892e8c81}, !- Space Name
  Outdoors,                               !- Outside Boundary Condition
  ,                                       !- Outside Boundary Condition Object
  SunExposed,                             !- Sun Exposure
  WindExposed,                            !- Wind Exposure
  ,                                       !- View Factor to Ground
  ,                                       !- Number of Vertices
  24.827933301022, -24.827933301022, 1.24875, !- X,Y,Z Vertex 1 {m}
  24.827933301022, -24.827933301022, 0,   !- X,Y,Z Vertex 2 {m}
  16.5519555340147, -16.5519555340147, 0, !- X,Y,Z Vertex 3 {m}
  16.5519555340147, -16.5519555340147, 1.24875; !- X,Y,Z Vertex 4 {m}

OS:Surface,
  {b346b9ba-81d0-440f-8826-316c3b85df96}, !- Handle
  Surface 5,                              !- Name
  Wall,                                   !- Surface Type
  ,                                       !- Construction Name
  {f654dd2b-841b-4f2b-bea3-e40d892e8c81}, !- Space Name
  Outdoors,                               !- Outside Boundary Condition
  ,                                       !- Outside Boundary Condition Object
  SunExposed,                             !- Sun Exposure
  WindExposed,                            !- Wind Exposure
  ,                                       !- View Factor to Ground
  ,                                       !- Number of Vertices
  33.1039110680294, -33.1039110680294, 1.24875, !- X,Y,Z Vertex 1 {m}
  33.1039110680294, -33.1039110680294, 0, !- X,Y,Z Vertex 2 {m}
  24.827933301022, -24.827933301022, 0,   !- X,Y,Z Vertex 3 {m}
  24.827933301022, -24.827933301022, 1.24875; !- X,Y,Z Vertex 4 {m}

OS:Surface,
  {47a70a41-f0be-44b0-a25c-b9a171c317c8}, !- Handle
  Surface 6,                              !- Name
  Wall,                                   !- Surface Type
  ,                                       !- Construction Name
  {f654dd2b-841b-4f2b-bea3-e40d892e8c81}, !- Space Name
  Outdoors,                               !- Outside Boundary Condition
  ,                                       !- Outside Boundary Condition Object
  SunExposed,                             !- Sun Exposure
  WindExposed,                            !- Wind Exposure
  ,                                       !- View Factor to Ground
  ,                                       !- Number of Vertices
  41.3798888350367, -41.3798888350368, 1.24875, !- X,Y,Z Vertex 1 {m}
  41.3798888350367, -41.3798888350368, 0, !- X,Y,Z Vertex 2 {m}
  33.1039110680294, -33.1039110680294, 0, !- X,Y,Z Vertex 3 {m}
  33.1039110680294, -33.1039110680294, 1.24875; !- X,Y,Z Vertex 4 {m}

OS:Surface,
  {702c47f4-0aa1-4bad-ac4b-56e4a2d41a55}, !- Handle
  Surface 7,                              !- Name
  Wall,                                   !- Surface Type
  ,                                       !- Construction Name
  {f654dd2b-841b-4f2b-bea3-e40d892e8c81}, !- Space Name
  Outdoors,                               !- Outside Boundary Condition
  ,                                       !- Outside Boundary Condition Object
  SunExposed,                             !- Sun Exposure
  WindExposed,                            !- Wind Exposure
  ,                                       !- View Factor to Ground
  ,                                       !- Number of Vertices
  33.7754604796477, -48.9843171904258, 1.24875, !- X,Y,Z Vertex 1 {m}
  33.7754604796477, -48.9843171904258, 0, !- X,Y,Z Vertex 2 {m}
  41.3798888350367, -41.3798888350368, 0, !- X,Y,Z Vertex 3 {m}
  41.3798888350367, -41.3798888350368, 1.24875; !- X,Y,Z Vertex 4 {m}

OS:Surface,
  {6555c202-ae70-4273-811b-7ad38e6828d9}, !- Handle
  Surface 8,                              !- Name
  Wall,                                   !- Surface Type
  ,                                       !- Construction Name
  {f654dd2b-841b-4f2b-bea3-e40d892e8c81}, !- Space Name
  Outdoors,                               !- Outside Boundary Condition
  ,                                       !- Outside Boundary Condition Object
  SunExposed,                             !- Sun Exposure
  WindExposed,                            !- Wind Exposure
  ,                                       !- View Factor to Ground
  ,                                       !- Number of Vertices
  26.1710321242586, -56.5887455458149, 1.24875, !- X,Y,Z Vertex 1 {m}
  26.1710321242586, -56.5887455458149, 0, !- X,Y,Z Vertex 2 {m}
  33.7754604796477, -48.9843171904258, 0, !- X,Y,Z Vertex 3 {m}
  33.7754604796477, -48.9843171904258, 1.24875; !- X,Y,Z Vertex 4 {m}

OS:Surface,
  {e53fe93a-e7b5-4ef5-9a68-b60f73c34c1d}, !- Handle
  Surface 9,                              !- Name
  Wall,                                   !- Surface Type
  ,                                       !- Construction Name
  {f654dd2b-841b-4f2b-bea3-e40d892e8c81}, !- Space Name
  Outdoors,                               !- Outside Boundary Condition
  ,                                       !- Outside Boundary Condition Object
  SunExposed,                             !- Sun Exposure
  WindExposed,                            !- Wind Exposure
  ,                                       !- View Factor to Ground
  ,                                       !- Number of Vertices
  18.5666037688696, -64.1931739012039, 1.24875, !- X,Y,Z Vertex 1 {m}
  18.5666037688696, -64.1931739012039, 0, !- X,Y,Z Vertex 2 {m}
  26.1710321242586, -56.5887455458149, 0, !- X,Y,Z Vertex 3 {m}
  26.1710321242586, -56.5887455458149, 1.24875; !- X,Y,Z Vertex 4 {m}

OS:Surface,
  {bd4c3641-62e0-40b2-baef-a1386834922c}, !- Handle
  Surface 10,                             !- Name
  Wall,                                   !- Surface Type
  ,                                       !- Construction Name
  {f654dd2b-841b-4f2b-bea3-e40d892e8c81}, !- Space Name
  Outdoors,                               !- Outside Boundary Condition
  ,                                       !- Outside Boundary Condition Object
  SunExposed,                             !- Sun Exposure
  WindExposed,                            !- Wind Exposure
  ,                                       !- View Factor to Ground
  ,                                       !- Number of Vertices
  10.9621754134806, -71.7976022565929, 1.24875, !- X,Y,Z Vertex 1 {m}
  10.9621754134806, -71.7976022565929, 0, !- X,Y,Z Vertex 2 {m}
  18.5666037688696, -64.1931739012039, 0, !- X,Y,Z Vertex 3 {m}
  18.5666037688696, -64.1931739012039, 1.24875; !- X,Y,Z Vertex 4 {m}

OS:Surface,
  {30dd6ea2-1ff6-4a84-ae01-de0948882d44}, !- Handle
  Surface 11,                             !- Name
  Wall,                                   !- Surface Type
  ,                                       !- Construction Name
  {f654dd2b-841b-4f2b-bea3-e40d892e8c81}, !- Space Name
  Outdoors,                               !- Outside Boundary Condition
  ,                                       !- Outside Boundary Condition Object
  SunExposed,                             !- Sun Exposure
  WindExposed,                            !- Wind Exposure
  ,                                       !- View Factor to Ground
  ,                                       !- Number of Vertices
  3.35774705809156, -79.402030611982, 1.24875, !- X,Y,Z Vertex 1 {m}
  3.35774705809156, -79.402030611982, 0,  !- X,Y,Z Vertex 2 {m}
  10.9621754134806, -71.7976022565929, 0, !- X,Y,Z Vertex 3 {m}
  10.9621754134806, -71.7976022565929, 1.24875; !- X,Y,Z Vertex 4 {m}

OS:Surface,
  {c0973055-274c-410d-959e-85e76badc612}, !- Handle
  Surface 12,                             !- Name
  Wall,                                   !- Surface Type
  ,                                       !- Construction Name
  {f654dd2b-841b-4f2b-bea3-e40d892e8c81}, !- Space Name
  Outdoors,                               !- Outside Boundary Condition
  ,                                       !- Outside Boundary Condition Object
  SunExposed,                             !- Sun Exposure
  WindExposed,                            !- Wind Exposure
  ,                                       !- View Factor to Ground
  ,                                       !- Number of Vertices
  -4.24668129729747, -87.006458967371, 1.24875, !- X,Y,Z Vertex 1 {m}
  -4.24668129729747, -87.006458967371, 0, !- X,Y,Z Vertex 2 {m}
  3.35774705809157, -79.402030611982, 0,  !- X,Y,Z Vertex 3 {m}
  3.35774705809157, -79.402030611982, 1.24875; !- X,Y,Z Vertex 4 {m}

OS:Surface,
  {260faf55-154e-4df1-89ab-71777df85779}, !- Handle
  Surface 13,                             !- Name
  Wall,                                   !- Surface Type
  ,                                       !- Construction Name
  {f654dd2b-841b-4f2b-bea3-e40d892e8c81}, !- Space Name
  Outdoors,                               !- Outside Boundary Condition
  ,                                       !- Outside Boundary Condition Object
  SunExposed,                             !- Sun Exposure
  WindExposed,                            !- Wind Exposure
  ,                                       !- View Factor to Ground
  ,                                       !- Number of Vertices
  -11.8511096526865, -94.61088732276, 1.24875, !- X,Y,Z Vertex 1 {m}
  -11.8511096526865, -94.61088732276, 0,  !- X,Y,Z Vertex 2 {m}
  -4.24668129729748, -87.006458967371, 0, !- X,Y,Z Vertex 3 {m}
  -4.24668129729748, -87.006458967371, 1.24875; !- X,Y,Z Vertex 4 {m}

OS:Surface,
  {9382590f-1fe4-4c32-894c-c04d75da629a}, !- Handle
  Surface 14,                             !- Name
  Wall,                                   !- Surface Type
  ,                                       !- Construction Name
  {f654dd2b-841b-4f2b-bea3-e40d892e8c81}, !- Space Name
  Outdoors,                               !- Outside Boundary Condition
  ,                                       !- Outside Boundary Condition Object
  SunExposed,                             !- Sun Exposure
  WindExposed,                            !- Wind Exposure
  ,                                       !- View Factor to Ground
  ,                                       !- Number of Vertices
  -20.1270874196939, -86.3349095557527, 1.24875, !- X,Y,Z Vertex 1 {m}
  -20.1270874196939, -86.3349095557527, 0, !- X,Y,Z Vertex 2 {m}
  -11.8511096526865, -94.61088732276, 0,  !- X,Y,Z Vertex 3 {m}
  -11.8511096526865, -94.61088732276, 1.24875; !- X,Y,Z Vertex 4 {m}

OS:Surface,
  {e1aec184-8ed9-4896-8674-5325029d4272}, !- Handle
  Surface 15,                             !- Name
  Wall,                                   !- Surface Type
  ,                                       !- Construction Name
  {f654dd2b-841b-4f2b-bea3-e40d892e8c81}, !- Space Name
  Outdoors,                               !- Outside Boundary Condition
  ,                                       !- Outside Boundary Condition Object
  SunExposed,                             !- Sun Exposure
  WindExposed,                            !- Wind Exposure
  ,                                       !- View Factor to Ground
  ,                                       !- Number of Vertices
  -28.4030651867013, -78.0589317887453, 1.24875, !- X,Y,Z Vertex 1 {m}
  -28.4030651867013, -78.0589317887453, 0, !- X,Y,Z Vertex 2 {m}
  -20.1270874196939, -86.3349095557527, 0, !- X,Y,Z Vertex 3 {m}
  -20.1270874196939, -86.3349095557527, 1.24875; !- X,Y,Z Vertex 4 {m}

OS:Surface,
  {16f675da-44b3-42a7-9913-678e50f976bf}, !- Handle
  Surface 16,                             !- Name
  Wall,                                   !- Surface Type
  ,                                       !- Construction Name
  {f654dd2b-841b-4f2b-bea3-e40d892e8c81}, !- Space Name
  Outdoors,                               !- Outside Boundary Condition
  ,                                       !- Outside Boundary Condition Object
  SunExposed,                             !- Sun Exposure
  WindExposed,                            !- Wind Exposure
  ,                                       !- View Factor to Ground
  ,                                       !- Number of Vertices
  -36.6790429537086, -69.782954021738, 1.24875, !- X,Y,Z Vertex 1 {m}
  -36.6790429537086, -69.782954021738, 0, !- X,Y,Z Vertex 2 {m}
  -28.4030651867013, -78.0589317887453, 0, !- X,Y,Z Vertex 3 {m}
  -28.4030651867013, -78.0589317887453, 1.24875; !- X,Y,Z Vertex 4 {m}

OS:Surface,
  {4eedd3c6-f94c-4da7-ba52-2fda471cb12d}, !- Handle
  Surface 17,                             !- Name
  Wall,                                   !- Surface Type
  ,                                       !- Construction Name
  {f654dd2b-841b-4f2b-bea3-e40d892e8c81}, !- Space Name
  Outdoors,                               !- Outside Boundary Condition
  ,                                       !- Outside Boundary Condition Object
  SunExposed,                             !- Sun Exposure
  WindExposed,                            !- Wind Exposure
  ,                                       !- View Factor to Ground
  ,                                       !- Number of Vertices
  -44.955020720716, -61.5069762547306, 1.24875, !- X,Y,Z Vertex 1 {m}
  -44.955020720716, -61.5069762547306, 0, !- X,Y,Z Vertex 2 {m}
  -36.6790429537086, -69.782954021738, 0, !- X,Y,Z Vertex 3 {m}
  -36.6790429537086, -69.782954021738, 1.24875; !- X,Y,Z Vertex 4 {m}

OS:Surface,
  {34966751-3e7d-4597-9e80-093b70fbd70f}, !- Handle
  Surface 18,                             !- Name
  Wall,                                   !- Surface Type
  ,                                       !- Construction Name
  {f654dd2b-841b-4f2b-bea3-e40d892e8c81}, !- Space Name
  Outdoors,                               !- Outside Boundary Condition
  ,                                       !- Outside Boundary Condition Object
  SunExposed,                             !- Sun Exposure
  WindExposed,                            !- Wind Exposure
  ,                                       !- View Factor to Ground
  ,                                       !- Number of Vertices
  -53.2309984877233, -53.2309984877233, 1.24875, !- X,Y,Z Vertex 1 {m}
  -53.2309984877233, -53.2309984877233, 0, !- X,Y,Z Vertex 2 {m}
  -44.955020720716, -61.5069762547306, 0, !- X,Y,Z Vertex 3 {m}
  -44.955020720716, -61.5069762547306, 1.24875; !- X,Y,Z Vertex 4 {m}

OS:Surface,
  {922417b4-61e4-43d3-ac9c-31dc0204bb64}, !- Handle
  Surface 19,                             !- Name
  Wall,                                   !- Surface Type
  ,                                       !- Construction Name
  {f654dd2b-841b-4f2b-bea3-e40d892e8c81}, !- Space Name
  Outdoors,                               !- Outside Boundary Condition
  ,                                       !- Outside Boundary Condition Object
  SunExposed,                             !- Sun Exposure
  WindExposed,                            !- Wind Exposure
  ,                                       !- View Factor to Ground
  ,                                       !- Number of Vertices
  -45.6265701323343, -45.6265701323343, 1.24875, !- X,Y,Z Vertex 1 {m}
  -45.6265701323343, -45.6265701323343, 0, !- X,Y,Z Vertex 2 {m}
  -53.2309984877233, -53.2309984877233, 0, !- X,Y,Z Vertex 3 {m}
  -53.2309984877233, -53.2309984877233, 1.24875; !- X,Y,Z Vertex 4 {m}

OS:Surface,
  {99337f10-f68a-4938-866a-aec4c50ab669}, !- Handle
  Surface 20,                             !- Name
  Wall,                                   !- Surface Type
  ,                                       !- Construction Name
  {f654dd2b-841b-4f2b-bea3-e40d892e8c81}, !- Space Name
  Outdoors,                               !- Outside Boundary Condition
  ,                                       !- Outside Boundary Condition Object
  SunExposed,                             !- Sun Exposure
  WindExposed,                            !- Wind Exposure
  ,                                       !- View Factor to Ground
  ,                                       !- Number of Vertices
  -38.0221417769452, -38.0221417769452, 1.24875, !- X,Y,Z Vertex 1 {m}
  -38.0221417769452, -38.0221417769452, 0, !- X,Y,Z Vertex 2 {m}
  -45.6265701323343, -45.6265701323343, 0, !- X,Y,Z Vertex 3 {m}
  -45.6265701323343, -45.6265701323343, 1.24875; !- X,Y,Z Vertex 4 {m}

OS:Surface,
  {267285ce-a81d-47b9-8b6a-d56c0a7635b5}, !- Handle
  Surface 21,                             !- Name
  Wall,                                   !- Surface Type
  ,                                       !- Construction Name
  {f654dd2b-841b-4f2b-bea3-e40d892e8c81}, !- Space Name
  Outdoors,                               !- Outside Boundary Condition
  ,                                       !- Outside Boundary Condition Object
  SunExposed,                             !- Sun Exposure
  WindExposed,                            !- Wind Exposure
  ,                                       !- View Factor to Ground
  ,                                       !- Number of Vertices
  -30.4177134215562, -30.4177134215561, 1.24875, !- X,Y,Z Vertex 1 {m}
  -30.4177134215562, -30.4177134215561, 0, !- X,Y,Z Vertex 2 {m}
  -38.0221417769452, -38.0221417769452, 0, !- X,Y,Z Vertex 3 {m}
  -38.0221417769452, -38.0221417769452, 1.24875; !- X,Y,Z Vertex 4 {m}

OS:Surface,
  {e633de69-83e8-4082-a883-f0ac9ed75208}, !- Handle
  Surface 22,                             !- Name
  Wall,                                   !- Surface Type
  ,                                       !- Construction Name
  {f654dd2b-841b-4f2b-bea3-e40d892e8c81}, !- Space Name
  Outdoors,                               !- Outside Boundary Condition
  ,                                       !- Outside Boundary Condition Object
  SunExposed,                             !- Sun Exposure
  WindExposed,                            !- Wind Exposure
  ,                                       !- View Factor to Ground
  ,                                       !- Number of Vertices
  -22.8132850661672, -22.8132850661671, 1.24875, !- X,Y,Z Vertex 1 {m}
  -22.8132850661672, -22.8132850661671, 0, !- X,Y,Z Vertex 2 {m}
  -30.4177134215562, -30.4177134215561, 0, !- X,Y,Z Vertex 3 {m}
  -30.4177134215562, -30.4177134215561, 1.24875; !- X,Y,Z Vertex 4 {m}

OS:Surface,
  {240dd9f0-f530-4174-bef6-cbb3a2da263b}, !- Handle
  Surface 23,                             !- Name
  Wall,                                   !- Surface Type
  ,                                       !- Construction Name
  {f654dd2b-841b-4f2b-bea3-e40d892e8c81}, !- Space Name
  Outdoors,                               !- Outside Boundary Condition
  ,                                       !- Outside Boundary Condition Object
  SunExposed,                             !- Sun Exposure
  WindExposed,                            !- Wind Exposure
  ,                                       !- View Factor to Ground
  ,                                       !- Number of Vertices
  -15.2088567107781, -15.2088567107781, 1.24875, !- X,Y,Z Vertex 1 {m}
  -15.2088567107781, -15.2088567107781, 0, !- X,Y,Z Vertex 2 {m}
  -22.8132850661672, -22.8132850661671, 0, !- X,Y,Z Vertex 3 {m}
  -22.8132850661672, -22.8132850661671, 1.24875; !- X,Y,Z Vertex 4 {m}

OS:Surface,
  {1c6c39e2-2455-4cd3-84ab-b9788afb0326}, !- Handle
  Surface 24,                             !- Name
  Wall,                                   !- Surface Type
  ,                                       !- Construction Name
  {f654dd2b-841b-4f2b-bea3-e40d892e8c81}, !- Space Name
  Outdoors,                               !- Outside Boundary Condition
  ,                                       !- Outside Boundary Condition Object
  SunExposed,                             !- Sun Exposure
  WindExposed,                            !- Wind Exposure
  ,                                       !- View Factor to Ground
  ,                                       !- Number of Vertices
  -7.60442835538904, -7.60442835538903, 1.24875, !- X,Y,Z Vertex 1 {m}
  -7.60442835538904, -7.60442835538903, 0, !- X,Y,Z Vertex 2 {m}
  -15.2088567107781, -15.2088567107781, 0, !- X,Y,Z Vertex 3 {m}
  -15.2088567107781, -15.2088567107781, 1.24875; !- X,Y,Z Vertex 4 {m}

OS:Surface,
  {a9f081f9-ccac-45b5-9df2-a26ed408703f}, !- Handle
  Surface 25,                             !- Name
  Wall,                                   !- Surface Type
  ,                                       !- Construction Name
  {f654dd2b-841b-4f2b-bea3-e40d892e8c81}, !- Space Name
  Outdoors,                               !- Outside Boundary Condition
  ,                                       !- Outside Boundary Condition Object
  SunExposed,                             !- Sun Exposure
  WindExposed,                            !- Wind Exposure
  ,                                       !- View Factor to Ground
  ,                                       !- Number of Vertices
  -3.11140144585471e-15, -2.79748432436497e-14, 1.24875, !- X,Y,Z Vertex 1 {m}
  -3.11140144585471e-15, -2.79748432436497e-14, 0, !- X,Y,Z Vertex 2 {m}
  -7.60442835538904, -7.60442835538903, 0, !- X,Y,Z Vertex 3 {m}
  -7.60442835538904, -7.60442835538903, 1.24875; !- X,Y,Z Vertex 4 {m}

OS:Surface,
  {3039eadf-30a3-4676-a3e5-ae64734cc9b9}, !- Handle
  Surface 26,                             !- Name
  RoofCeiling,                            !- Surface Type
  ,                                       !- Construction Name
  {f654dd2b-841b-4f2b-bea3-e40d892e8c81}, !- Space Name
  Surface,                                !- Outside Boundary Condition
  {5f77093f-057a-48d8-8d84-0fe71b1a34f7}, !- Outside Boundary Condition Object
  NoSun,                                  !- Sun Exposure
  NoWind,                                 !- Wind Exposure
  ,                                       !- View Factor to Ground
  ,                                       !- Number of Vertices
  -11.8511096526865, -94.61088732276, 1.24875, !- X,Y,Z Vertex 1 {m}
  41.3798888350367, -41.3798888350368, 1.24875, !- X,Y,Z Vertex 2 {m}
  -2.66453525910038e-15, -2.8421709430404e-14, 1.24875, !- X,Y,Z Vertex 3 {m}
  -53.2309984877233, -53.2309984877233, 1.24875; !- X,Y,Z Vertex 4 {m}

OS:BuildingStory,
  {75096ddd-d0c2-4e73-88ff-da6a3ea10dfa}, !- Handle
  Rectangle:Story 2,                      !- Name
  1.24875,                                !- Nominal Z Coordinate {m}
  0.8325,                                 !- Nominal Floor to Floor Height {m}
  ,                                       !- Default Construction Set Name
  ,                                       !- Default Schedule Set Name
  {caf424b5-c639-4983-b599-0199d9297e4b}; !- Group Rendering Name

OS:Space,
  {6824f9a6-b701-4b58-bd48-4fc231bca983}, !- Handle
  0 Core Space 1,                         !- Name
  ,                                       !- Space Type Name
  ,                                       !- Default Construction Set Name
  ,                                       !- Default Schedule Set Name
  -0,                                     !- Direction of Relative North {deg}
  5.92555482634326,                       !- X Origin {m}
  47.30544366138,                         !- Y Origin {m}
  1.24875,                                !- Z Origin {m}
  {75096ddd-d0c2-4e73-88ff-da6a3ea10dfa}, !- Building Story Name
  {538b941e-459e-432c-b273-bda9a3f396a5}; !- Thermal Zone Name

OS:Surface,
  {5f77093f-057a-48d8-8d84-0fe71b1a34f7}, !- Handle
  Surface 27,                             !- Name
  Floor,                                  !- Surface Type
  ,                                       !- Construction Name
  {6824f9a6-b701-4b58-bd48-4fc231bca983}, !- Space Name
  Surface,                                !- Outside Boundary Condition
  {3039eadf-30a3-4676-a3e5-ae64734cc9b9}, !- Outside Boundary Condition Object
  NoSun,                                  !- Sun Exposure
  NoWind,                                 !- Wind Exposure
  ,                                       !- View Factor to Ground
  ,                                       !- Number of Vertices
  -2.66453525910038e-15, -2.8421709430404e-14, 0, !- X,Y,Z Vertex 1 {m}
  41.3798888350367, -41.3798888350368, 0, !- X,Y,Z Vertex 2 {m}
  -11.8511096526865, -94.61088732276, 0,  !- X,Y,Z Vertex 3 {m}
  -53.2309984877233, -53.2309984877233, 0; !- X,Y,Z Vertex 4 {m}

OS:Surface,
  {74e85c86-c8ae-4a48-a52a-cd2cf44ad17e}, !- Handle
  Surface 28,                             !- Name
  Wall,                                   !- Surface Type
  ,                                       !- Construction Name
  {6824f9a6-b701-4b58-bd48-4fc231bca983}, !- Space Name
  Outdoors,                               !- Outside Boundary Condition
  ,                                       !- Outside Boundary Condition Object
  SunExposed,                             !- Sun Exposure
  WindExposed,                            !- Wind Exposure
  ,                                       !- View Factor to Ground
  ,                                       !- Number of Vertices
  8.27597776700734, -8.27597776700733, 0.8325, !- X,Y,Z Vertex 1 {m}
  8.27597776700734, -8.27597776700733, 0, !- X,Y,Z Vertex 2 {m}
  -2.25498886448316e-15, -2.80121630357868e-14, 0, !- X,Y,Z Vertex 3 {m}
  -2.25498886448316e-15, -2.80121630357868e-14, 0.8325; !- X,Y,Z Vertex 4 {m}

OS:Surface,
  {4f5e3f7c-7dff-465c-b9c7-d9e4abbe0981}, !- Handle
  Surface 29,                             !- Name
  Wall,                                   !- Surface Type
  ,                                       !- Construction Name
  {6824f9a6-b701-4b58-bd48-4fc231bca983}, !- Space Name
  Outdoors,                               !- Outside Boundary Condition
  ,                                       !- Outside Boundary Condition Object
  SunExposed,                             !- Sun Exposure
  WindExposed,                            !- Wind Exposure