
OS:Version,
  {3cbac445-9362-48f3-81ec-7a3844bbc1e3}, !- Handle
  1.7.0;                                  !- Version Identifier

OS:BuildingStory,
  {c58947d5-d2e0-473e-9751-8edf865c965f}, !- Handle
  Rectangle:Story 1,                      !- Name
  0,                                      !- Nominal Z Coordinate {m}
  1.24875,                                !- Nominal Floor to Floor Height {m}
  ,                                       !- Default Construction Set Name
  ,                                       !- Default Schedule Set Name
  {b401aa5a-28cf-4119-bc0d-dbe87c9fca54}; !- Group Rendering Name

OS:Space,
  {6cd29fdf-81b0-4243-8455-e91a1fe65322}, !- Handle
  0 Core Space,                           !- Name
  ,                                       !- Space Type Name
  ,                                       !- Default Construction Set Name
  ,                                       !- Default Schedule Set Name
  -0,                                     !- Direction of Relative North {deg}
  51.7248610437959,                       !- X Origin {m}
  100.996061556875,                       !- Y Origin {m}
  0,                                      !- Z Origin {m}
  {c58947d5-d2e0-473e-9751-8edf865c965f}, !- Building Story Name
  {4f3ba60c-2243-4b29-b341-c3067e15d90e}; !- Thermal Zone Name

OS:Surface,
  {694f7f05-23ba-472e-921d-9d827bba53c7}, !- Handle
  Surface 1,                              !- Name
  Floor,                                  !- Surface Type
  ,                                       !- Construction Name
  {6cd29fdf-81b0-4243-8455-e91a1fe65322}, !- Space Name
  Ground,                                 !- Outside Boundary Condition
  ,                                       !- Outside Boundary Condition Object
  NoSun,                                  !- Sun Exposure
  NoWind,                                 !- Wind Exposure
  ,                                       !- View Factor to Ground
  ,                                       !- Number of Vertices
  -4.2632564145606e-14, 4.12114786740858e-13, 0, !- X,Y,Z Vertex 1 {m}
  41.3728177672249, -41.3728177672249, 0, !- X,Y,Z Vertex 2 {m}
  -11.8652517883102, -94.6108873227601, 0, !- X,Y,Z Vertex 3 {m}
  -53.2380695555352, -53.2380695555352, 0; !- X,Y,Z Vertex 4 {m}

OS:Surface,
  {e5a46114-d9af-4f21-aea9-0d2ad6bc4c13}, !- Handle
  Surface 2,                              !- Name
  Wall,                                   !- Surface Type
  ,                                       !- Construction Name
  {6cd29fdf-81b0-4243-8455-e91a1fe65322}, !- Space Name
  Outdoors,                               !- Outside Boundary Condition
  ,                                       !- Outside Boundary Condition Object
  SunExposed,                             !- Sun Exposure
  WindExposed,                            !- Wind Exposure
  ,                                       !- View Factor to Ground
  ,                                       !- Number of Vertices
  8.27456355344496, -8.27456355344499, 1.24875, !- X,Y,Z Vertex 1 {m}
  8.27456355344496, -8.27456355344499, 0, !- X,Y,Z Vertex 2 {m}
  -4.28393270927588e-14, 4.11908023793705e-13, 0, !- X,Y,Z Vertex 3 {m}
  -4.28393270927588e-14, 4.11908023793705e-13, 1.24875; !- X,Y,Z Vertex 4 {m}

OS:Surface,
  {83c21b91-26cb-4b2e-8a79-13cea9bcd4eb}, !- Handle
  Surface 3,                              !- Name
  Wall,                                   !- Surface Type
  ,                                       !- Construction Name
  {6cd29fdf-81b0-4243-8455-e91a1fe65322}, !- Space Name
  Outdoors,                               !- Outside Boundary Condition
  ,                                       !- Outside Boundary Condition Object
  SunExposed,                             !- Sun Exposure
  WindExposed,                            !- Wind Exposure
  ,                                       !- View Factor to Ground
  ,                                       !- Number of Vertices
  16.54912710689, -16.54912710689, 1.24875, !- X,Y,Z Vertex 1 {m}
  16.54912710689, -16.54912710689, 0,     !- X,Y,Z Vertex 2 {m}
  8.27456355344496, -8.27456355344499, 0, !- X,Y,Z Vertex 3 {m}
  8.27456355344496, -8.27456355344499, 1.24875; !- X,Y,Z Vertex 4 {m}

OS:Surface,
  {661e4ca7-696c-4a8b-a4e5-e637b4f9d085}, !- Handle
  Surface 4,                              !- Name
  Wall,                                   !- Surface Type
  ,                                       !- Construction Name
  {6cd29fdf-81b0-4243-8455-e91a1fe65322}, !- Space Name
  Outdoors,                               !- Outside Boundary Condition
  ,                                       !- Outside Boundary Condition Object
  SunExposed,                             !- Sun Exposure
  WindExposed,                            !- Wind Exposure
  ,                                       !- View Factor to Ground
  ,                                       !- Number of Vertices
  24.823690660335, -24.8236906603349, 1.24875, !- X,Y,Z Vertex 1 {m}
  24.823690660335, -24.8236906603349, 0,  !- X,Y,Z Vertex 2 {m}
  16.54912710689, -16.54912710689, 0,     !- X,Y,Z Vertex 3 {m}
  16.54912710689, -16.54912710689, 1.24875; !- X,Y,Z Vertex 4 {m}

OS:Surface,
  {852cac63-7f22-4abe-9674-7cef2a2a083a}, !- Handle
  Surface 5,                              !- Name
  Wall,                                   !- Surface Type
  ,                                       !- Construction Name
  {6cd29fdf-81b0-4243-8455-e91a1fe65322}, !- Space Name
  Outdoors,                               !- Outside Boundary Condition
  ,                                       !- Outside Boundary Condition Object
  SunExposed,                             !- Sun Exposure
  WindExposed,                            !- Wind Exposure
  ,                                       !- View Factor to Ground
  ,                                       !- Number of Vertices
  33.09825421378, -33.0982542137799, 1.24875, !- X,Y,Z Vertex 1 {m}
  33.09825421378, -33.0982542137799, 0,   !- X,Y,Z Vertex 2 {m}
  24.823690660335, -24.8236906603349, 0,  !- X,Y,Z Vertex 3 {m}
  24.823690660335, -24.8236906603349, 1.24875; !- X,Y,Z Vertex 4 {m}

OS:Surface,
  {c2c7d1ad-579e-4982-82d9-b11ff184c06a}, !- Handle
  Surface 6,                              !- Name
  Wall,                                   !- Surface Type
  ,                                       !- Construction Name
  {6cd29fdf-81b0-4243-8455-e91a1fe65322}, !- Space Name
  Outdoors,                               !- Outside Boundary Condition
  ,                                       !- Outside Boundary Condition Object
  SunExposed,                             !- Sun Exposure
  WindExposed,                            !- Wind Exposure
  ,                                       !- View Factor to Ground
  ,                                       !- Number of Vertices
  41.3728177672249, -41.3728177672249, 1.24875, !- X,Y,Z Vertex 1 {m}
  41.3728177672249, -41.3728177672249, 0, !- X,Y,Z Vertex 2 {m}
  33.09825421378, -33.0982542137799, 0,   !- X,Y,Z Vertex 3 {m}
  33.09825421378, -33.0982542137799, 1.24875; !- X,Y,Z Vertex 4 {m}

OS:Surface,
  {f6cc92d9-6c44-47ac-abe7-b40540b811c2}, !- Handle
  Surface 7,                              !- Name
  Wall,                                   !- Surface Type
  ,                                       !- Construction Name
  {6cd29fdf-81b0-4243-8455-e91a1fe65322}, !- Space Name
  Outdoors,                               !- Outside Boundary Condition
  ,                                       !- Outside Boundary Condition Object
  SunExposed,                             !- Sun Exposure
  WindExposed,                            !- Wind Exposure
  ,                                       !- View Factor to Ground
  ,                                       !- Number of Vertices
  33.7673792592913, -48.9782562751585, 1.24875, !- X,Y,Z Vertex 1 {m}
  33.7673792592913, -48.9782562751585, 0, !- X,Y,Z Vertex 2 {m}
  41.3728177672249, -41.3728177672249, 0, !- X,Y,Z Vertex 3 {m}
  41.3728177672249, -41.3728177672249, 1.24875; !- X,Y,Z Vertex 4 {m}

OS:Surface,
  {9314db04-9549-4829-8cb4-0b59c917c96f}, !- Handle
  Surface 8,                              !- Name
  Wall,                                   !- Surface Type
  ,                                       !- Construction Name
  {6cd29fdf-81b0-4243-8455-e91a1fe65322}, !- Space Name
  Outdoors,                               !- Outside Boundary Condition
  ,                                       !- Outside Boundary Condition Object
  SunExposed,                             !- Sun Exposure
  WindExposed,                            !- Wind Exposure
  ,                                       !- View Factor to Ground
  ,                                       !- Number of Vertices
  26.1619407513578, -56.5836947830921, 1.24875, !- X,Y,Z Vertex 1 {m}
  26.1619407513578, -56.5836947830921, 0, !- X,Y,Z Vertex 2 {m}
  33.7673792592913, -48.9782562751585, 0, !- X,Y,Z Vertex 3 {m}
  33.7673792592913, -48.9782562751585, 1.24875; !- X,Y,Z Vertex 4 {m}

OS:Surface,
  {59ceb7c2-acde-491b-ad1d-bc2a34b07271}, !- Handle
  Surface 9,                              !- Name
  Wall,                                   !- Surface Type
  ,                                       !- Construction Name
  {6cd29fdf-81b0-4243-8455-e91a1fe65322}, !- Space Name
  Outdoors,                               !- Outside Boundary Condition
  ,                                       !- Outside Boundary Condition Object
  SunExposed,                             !- Sun Exposure
  WindExposed,                            !- Wind Exposure
  ,                                       !- View Factor to Ground
  ,                                       !- Number of Vertices
  18.5565022434242, -64.1891332910257, 1.24875, !- X,Y,Z Vertex 1 {m}
  18.5565022434242, -64.1891332910257, 0, !- X,Y,Z Vertex 2 {m}
  26.1619407513578, -56.5836947830921, 0, !- X,Y,Z Vertex 3 {m}
  26.1619407513578, -56.5836947830921, 1.24875; !- X,Y,Z Vertex 4 {m}

OS:Surface,
  {86aa9059-f1fb-4991-bd21-423a251be4df}, !- Handle
  Surface 10,                             !- Name
  Wall,                                   !- Surface Type
  ,                                       !- Construction Name
  {6cd29fdf-81b0-4243-8455-e91a1fe65322}, !- Space Name
  Outdoors,                               !- Outside Boundary Condition
  ,                                       !- Outside Boundary Condition Object
  SunExposed,                             !- Sun Exposure
  WindExposed,                            !- Wind Exposure
  ,                                       !- View Factor to Ground
  ,                                       !- Number of Vertices
  10.9510637354906, -71.7945717989593, 1.24875, !- X,Y,Z Vertex 1 {m}
  10.9510637354906, -71.7945717989593, 0, !- X,Y,Z Vertex 2 {m}
  18.5565022434242, -64.1891332910257, 0, !- X,Y,Z Vertex 3 {m}
  18.5565022434242, -64.1891332910257, 1.24875; !- X,Y,Z Vertex 4 {m}

OS:Surface,
  {6cd61980-00a5-4a43-87ef-6c812dab2eda}, !- Handle
  Surface 11,                             !- Name
  Wall,                                   !- Surface Type
  ,                                       !- Construction Name
  {6cd29fdf-81b0-4243-8455-e91a1fe65322}, !- Space Name
  Outdoors,                               !- Outside Boundary Condition
  ,                                       !- Outside Boundary Condition Object
  SunExposed,                             !- Sun Exposure
  WindExposed,                            !- Wind Exposure
  ,                                       !- View Factor to Ground
  ,                                       !- Number of Vertices
  3.34562522755696, -79.4000103068929, 1.24875, !- X,Y,Z Vertex 1 {m}
  3.34562522755696, -79.4000103068929, 0, !- X,Y,Z Vertex 2 {m}
  10.9510637354906, -71.7945717989593, 0, !- X,Y,Z Vertex 3 {m}
  10.9510637354906, -71.7945717989593, 1.24875; !- X,Y,Z Vertex 4 {m}

OS:Surface,
  {f34c7a5e-43a8-40bb-b5df-24f3a837d62e}, !- Handle
  Surface 12,                             !- Name
  Wall,                                   !- Surface Type
  ,                                       !- Construction Name
  {6cd29fdf-81b0-4243-8455-e91a1fe65322}, !- Space Name
  Outdoors,                               !- Outside Boundary Condition
  ,                                       !- Outside Boundary Condition Object
  SunExposed,                             !- Sun Exposure
  WindExposed,                            !- Wind Exposure
  ,                                       !- View Factor to Ground
  ,                                       !- Number of Vertices
  -4.25981328037664, -87.0054488148265, 1.24875, !- X,Y,Z Vertex 1 {m}
  -4.25981328037664, -87.0054488148265, 0, !- X,Y,Z Vertex 2 {m}
  3.34562522755696, -79.4000103068929, 0, !- X,Y,Z Vertex 3 {m}
  3.34562522755696, -79.4000103068929, 1.24875; !- X,Y,Z Vertex 4 {m}

OS:Surface,
  {57034fd6-5c71-4b47-824c-8e489778beb4}, !- Handle
  Surface 13,                             !- Name
  Wall,                                   !- Surface Type
  ,                                       !- Construction Name
  {6cd29fdf-81b0-4243-8455-e91a1fe65322}, !- Space Name
  Outdoors,                               !- Outside Boundary Condition
  ,                                       !- Outside Boundary Condition Object
  SunExposed,                             !- Sun Exposure
  WindExposed,                            !- Wind Exposure
  ,                                       !- View Factor to Ground
  ,                                       !- Number of Vertices
  -11.8652517883102, -94.6108873227601, 1.24875, !- X,Y,Z Vertex 1 {m}
  -11.8652517883102, -94.6108873227601, 0, !- X,Y,Z Vertex 2 {m}
  -4.25981328037664, -87.0054488148265, 0, !- X,Y,Z Vertex 3 {m}
  -4.25981328037664, -87.0054488148265, 1.24875; !- X,Y,Z Vertex 4 {m}

OS:Surface,
  {d75d13c1-fd7b-4454-bc01-2dd36f572e7d}, !- Handle
  Surface 14,                             !- Name
  Wall,                                   !- Surface Type
  ,                                       !- Construction Name
  {6cd29fdf-81b0-4243-8455-e91a1fe65322}, !- Space Name
  Outdoors,                               !- Outside Boundary Condition
  ,                                       !- Outside Boundary Condition Object
  SunExposed,                             !- Sun Exposure
  WindExposed,                            !- Wind Exposure
  ,                                       !- View Factor to Ground
  ,                                       !- Number of Vertices
  -20.1398153417552, -86.3363237693151, 1.24875, !- X,Y,Z Vertex 1 {m}
  -20.1398153417552, -86.3363237693151, 0, !- X,Y,Z Vertex 2 {m}
  -11.8652517883102, -94.6108873227601, 0, !- X,Y,Z Vertex 3 {m}
  -11.8652517883102, -94.6108873227601, 1.24875; !- X,Y,Z Vertex 4 {m}

OS:Surface,
  {d80cb66c-f52f-4d6b-9007-0517a14b960f}, !- Handle
  Surface 15,                             !- Name
  Wall,                                   !- Surface Type
  ,                                       !- Construction Name
  {6cd29fdf-81b0-4243-8455-e91a1fe65322}, !- Space Name
  Outdoors,                               !- Outside Boundary Condition
  ,                                       !- Outside Boundary Condition Object
  SunExposed,                             !- Sun Exposure
  WindExposed,                            !- Wind Exposure
  ,                                       !- View Factor to Ground
  ,                                       !- Number of Vertices
  -28.4143788952002, -78.0617602158701, 1.24875, !- X,Y,Z Vertex 1 {m}
  -28.4143788952002, -78.0617602158701, 0, !- X,Y,Z Vertex 2 {m}
  -20.1398153417552, -86.3363237693151, 0, !- X,Y,Z Vertex 3 {m}
  -20.1398153417552, -86.3363237693151, 1.24875; !- X,Y,Z Vertex 4 {m}

OS:Surface,
  {0d4c38ff-7e79-454f-ad53-ab77618a4bd8}, !- Handle
  Surface 16,                             !- Name
  Wall,                                   !- Surface Type
  ,                                       !- Construction Name
  {6cd29fdf-81b0-4243-8455-e91a1fe65322}, !- Space Name
  Outdoors,                               !- Outside Boundary Condition
  ,                                       !- Outside Boundary Condition Object
  SunExposed,                             !- Sun Exposure
  WindExposed,                            !- Wind Exposure
  ,                                       !- View Factor to Ground
  ,                                       !- Number of Vertices
  -36.6889424486452, -69.7871966624251, 1.24875, !- X,Y,Z Vertex 1 {m}
  -36.6889424486452, -69.7871966624251, 0, !- X,Y,Z Vertex 2 {m}
  -28.4143788952002, -78.0617602158701, 0, !- X,Y,Z Vertex 3 {m}
  -28.4143788952002, -78.0617602158701, 1.24875; !- X,Y,Z Vertex 4 {m}

OS:Surface,
  {06153731-7596-4e51-a13b-5cac7a9b39b2}, !- Handle
  Surface 17,                             !- Name
  Wall,                                   !- Surface Type
  ,                                       !- Construction Name
  {6cd29fdf-81b0-4243-8455-e91a1fe65322}, !- Space Name
  Outdoors,                               !- Outside Boundary Condition
  ,                                       !- Outside Boundary Condition Object
  SunExposed,                             !- Sun Exposure
  WindExposed,                            !- Wind Exposure
  ,                                       !- View Factor to Ground
  ,                                       !- Number of Vertices
  -44.9635060020902, -61.5126331089802, 1.24875, !- X,Y,Z Vertex 1 {m}
  -44.9635060020902, -61.5126331089802, 0, !- X,Y,Z Vertex 2 {m}
  -36.6889424486452, -69.7871966624251, 0, !- X,Y,Z Vertex 3 {m}
  -36.6889424486452, -69.7871966624251, 1.24875; !- X,Y,Z Vertex 4 {m}

OS:Surface,
  {5bcfa9a5-640f-4ed7-9ea8-994b5d2e6572}, !- Handle
  Surface 18,                             !- Name
  Wall,                                   !- Surface Type
  ,                                       !- Construction Name
  {6cd29fdf-81b0-4243-8455-e91a1fe65322}, !- Space Name
  Outdoors,                               !- Outside Boundary Condition
  ,                                       !- Outside Boundary Condition Object
  SunExposed,                             !- Sun Exposure
  WindExposed,                            !- Wind Exposure
  ,                                       !- View Factor to Ground
  ,                                       !- Number of Vertices
  -53.2380695555352, -53.2380695555352, 1.24875, !- X,Y,Z Vertex 1 {m}
  -53.2380695555352, -53.2380695555352, 0, !- X,Y,Z Vertex 2 {m}
  -44.9635060020902, -61.5126331089802, 0, !- X,Y,Z Vertex 3 {m}
  -44.9635060020902, -61.5126331089802, 1.24875; !- X,Y,Z Vertex 4 {m}

OS:Surface,
  {834c44be-82a8-43fc-a0fa-5e130be6310c}, !- Handle
  Surface 19,                             !- Name
  Wall,                                   !- Surface Type
  ,                                       !- Construction Name
  {6cd29fdf-81b0-4243-8455-e91a1fe65322}, !- Space Name
  Outdoors,                               !- Outside Boundary Condition
  ,                                       !- Outside Boundary Condition Object
  SunExposed,                             !- Sun Exposure
  WindExposed,                            !- Wind Exposure
  ,                                       !- View Factor to Ground
  ,                                       !- Number of Vertices
  -45.6326310476016, -45.6326310476016, 1.24875, !- X,Y,Z Vertex 1 {m}
  -45.6326310476016, -45.6326310476016, 0, !- X,Y,Z Vertex 2 {m}
  -53.2380695555352, -53.2380695555352, 0, !- X,Y,Z Vertex 3 {m}
  -53.2380695555352, -53.2380695555352, 1.24875; !- X,Y,Z Vertex 4 {m}

OS:Surface,
  {eedba97a-b28d-4fae-8f9f-f33ac979709c}, !- Handle
  Surface 20,                             !- Name
  Wall,                                   !- Surface Type
  ,                                       !- Construction Name
  {6cd29fdf-81b0-4243-8455-e91a1fe65322}, !- Space Name
  Outdoors,                               !- Outside Boundary Condition
  ,                                       !- Outside Boundary Condition Object
  SunExposed,                             !- Sun Exposure
  WindExposed,                            !- Wind Exposure
  ,                                       !- View Factor to Ground
  ,                                       !- Number of Vertices
  -38.0271925396679, -38.027192539668, 1.24875, !- X,Y,Z Vertex 1 {m}
  -38.0271925396679, -38.027192539668, 0, !- X,Y,Z Vertex 2 {m}
  -45.6326310476016, -45.6326310476016, 0, !- X,Y,Z Vertex 3 {m}
  -45.6326310476016, -45.6326310476016, 1.24875; !- X,Y,Z Vertex 4 {m}

OS:Surface,
  {5dbd5351-748a-41a9-a6cb-012cef7d21ee}, !- Handle
  Surface 21,                             !- Name
  Wall,                                   !- Surface Type
  ,                                       !- Construction Name
  {6cd29fdf-81b0-4243-8455-e91a1fe65322}, !- Space Name
  Outdoors,                               !- Outside Boundary Condition
  ,                                       !- Outside Boundary Condition Object
  SunExposed,                             !- Sun Exposure
  WindExposed,                            !- Wind Exposure
  ,                                       !- View Factor to Ground
  ,                                       !- Number of Vertices
  -30.4217540317343, -30.4217540317344, 1.24875, !- X,Y,Z Vertex 1 {m}
  -30.4217540317343, -30.4217540317344, 0, !- X,Y,Z Vertex 2 {m}
  -38.0271925396679, -38.027192539668, 0, !- X,Y,Z Vertex 3 {m}
  -38.0271925396679, -38.027192539668, 1.24875; !- X,Y,Z Vertex 4 {m}

OS:Surface,
  {340675db-9492-4dfc-b623-fac194b44eca}, !- Handle
  Surface 22,                             !- Name
  Wall,                                   !- Surface Type
  ,                                       !- Construction Name
  {6cd29fdf-81b0-4243-8455-e91a1fe65322}, !- Space Name
  Outdoors,                               !- Outside Boundary Condition
  ,                                       !- Outside Boundary Condition Object
  SunExposed,                             !- Sun Exposure
  WindExposed,                            !- Wind Exposure
  ,                                       !- View Factor to Ground
  ,                                       !- Number of Vertices
  -22.8163155238007, -22.8163155238008, 1.24875, !- X,Y,Z Vertex 1 {m}
  -22.8163155238007, -22.8163155238008, 0, !- X,Y,Z Vertex 2 {m}
  -30.4217540317343, -30.4217540317344, 0, !- X,Y,Z Vertex 3 {m}
  -30.4217540317343, -30.4217540317344, 1.24875; !- X,Y,Z Vertex 4 {m}

OS:Surface,
  {131096a3-2ec1-460b-9fb8-25ff34d67c3c}, !- Handle
  Surface 23,                             !- Name
  Wall,                                   !- Surface Type
  ,                                       !- Construction Name
  {6cd29fdf-81b0-4243-8455-e91a1fe65322}, !- Space Name
  Outdoors,                               !- Outside Boundary Condition
  ,                                       !- Outside Boundary Condition Object
  SunExposed,                             !- Sun Exposure
  WindExposed,                            !- Wind Exposure
  ,                                       !- View Factor to Ground
  ,                                       !- Number of Vertices
  -15.2108770158672, -15.2108770158672, 1.24875, !- X,Y,Z Vertex 1 {m}
  -15.2108770158672, -15.2108770158672, 0, !- X,Y,Z Vertex 2 {m}
  -22.8163155238007, -22.8163155238008, 0, !- X,Y,Z Vertex 3 {m}
  -22.8163155238007, -22.8163155238008, 1.24875; !- X,Y,Z Vertex 4 {m}

OS:Surface,
  {4411250a-0040-4ce4-8852-96570e40a837}, !- Handle
  Surface 24,                             !- Name
  Wall,                                   !- Surface Type
  ,                                       !- Construction Name
  {6cd29fdf-81b0-4243-8455-e91a1fe65322}, !- Space Name
  Outdoors,                               !- Outside Boundary Condition
  ,                                       !- Outside Boundary Condition Object
  SunExposed,                             !- Sun Exposure
  WindExposed,                            !- Wind Exposure
  ,                                       !- View Factor to Ground
  ,                                       !- Number of Vertices
  -7.60543850793364, -7.6054385079336, 1.24875, !- X,Y,Z Vertex 1 {m}
  -7.60543850793364, -7.6054385079336, 0, !- X,Y,Z Vertex 2 {m}
  -15.2108770158672, -15.2108770158672, 0, !- X,Y,Z Vertex 3 {m}
  -15.2108770158672, -15.2108770158672, 1.24875; !- X,Y,Z Vertex 4 {m}

OS:Surface,
  {15e5dd1b-0255-4ef0-836d-d4e2e2805f54}, !- Handle
  Surface 25,                             !- Name
  Wall,                                   !- Surface Type
  ,                                       !- Construction Name
  {6cd29fdf-81b0-4243-8455-e91a1fe65322}, !- Space Name
  Outdoors,                               !- Outside Boundary Condition
  ,                                       !- Outside Boundary Condition Object
  SunExposed,                             !- Sun Exposure
  WindExposed,                            !- Wind Exposure
  ,                                       !- View Factor to Ground
  ,                                       !- Number of Vertices
  -4.2927821936981e-14, 4.12410044532233e-13, 1.24875, !- X,Y,Z Vertex 1 {m}
  -4.2927821936981e-14, 4.12410044532233e-13, 0, !- X,Y,Z Vertex 2 {m}
  -7.60543850793364, -7.6054385079336, 0, !- X,Y,Z Vertex 3 {m}
  -7.60543850793364, -7.6054385079336, 1.24875; !- X,Y,Z Vertex 4 {m}

OS:Surface,
  {f58d5bb7-de55-4ca6-a49c-7aa705a17a52}, !- Handle
  Surface 26,                             !- Name
  RoofCeiling,                            !- Surface Type
  ,                                       !- Construction Name
  {6cd29fdf-81b0-4243-8455-e91a1fe65322}, !- Space Name
  Surface,                                !- Outside Boundary Condition
  {fe631c50-0c47-480e-9c41-a68b40fbcbdd}, !- Outside Boundary Condition Object
  NoSun,                                  !- Sun Exposure
  NoWind,                                 !- Wind Exposure
  ,                                       !- View Factor to Ground
  ,                                       !- Number of Vertices
  -11.8652517883102, -94.6108873227601, 1.24875, !- X,Y,Z Vertex 1 {m}
  41.3728177672249, -41.3728177672249, 1.24875, !- X,Y,Z Vertex 2 {m}
  -4.2632564145606e-14, 4.12114786740858e-13, 1.24875, !- X,Y,Z Vertex 3 {m}
  -53.2380695555352, -53.2380695555352, 1.24875; !- X,Y,Z Vertex 4 {m}

OS:BuildingStory,
  {ab8cdc02-5061-4a2f-b86b-3daae09f7533}, !- Handle
  Rectangle:Story 2,                      !- Name
  1.24875,                                !- Nominal Z Coordinate {m}
  0.8325,                                 !- Nominal Floor to Floor Height {m}
  ,                                       !- Default Construction Set Name
  ,                                       !- Default Schedule Set Name
  {0dd6ac03-b772-468b-9e14-4c8709a773f7}; !- Group Rendering Name

OS:Space,
  {80f7130d-8710-4236-8c04-9b040d717b93}, !- Handle
  0 Core Space 1,                         !- Name
  ,                                       !- Space Type Name
  ,                                       !- Default Construction Set Name
  ,                                       !- Default Schedule Set Name
  -0,                                     !- Direction of Relative North {deg}
  51.7248610437959,                       !- X Origin {m}
  100.996061556875,                       !- Y Origin {m}
  1.24875,                                !- Z Origin {m}
  {ab8cdc02-5061-4a2f-b86b-3daae09f7533}, !- Building Story Name
  {91c27a0b-f479-4ba5-a167-61d464dbc655}; !- Thermal Zone Name

OS:Surface,
  {fe631c50-0c47-480e-9c41-a68b40fbcbdd}, !- Handle
  Surface 27,                             !- Name
  Floor,                                  !- Surface Type
  ,                                       !- Construction Name
  {80f7130d-8710-4236-8c04-9b040d717b93}, !- Space Name
  Surface,                                !- Outside Boundary Condition
  {f58d5bb7-de55-4ca6-a49c-7aa705a17a52}, !- Outside Boundary Condition Object
  NoSun,                                  !- Sun Exposure
  NoWind,                                 !- Wind Exposure
  ,                                       !- View Factor to Ground
  ,                                       !- Number of Vertices
  -4.2632564145606e-14, 4.12114786740858e-13, 0, !- X,Y,Z Vertex 1 {m}
  41.3728177672249, -41.3728177672249, 0, !- X,Y,Z Vertex 2 {m}
  -11.8652517883102, -94.6108873227601, 0, !- X,Y,Z Vertex 3 {m}
  -53.2380695555352, -53.2380695555352, 0; !- X,Y,Z Vertex 4 {m}

OS:Surface,
  {ca008425-c19d-4c50-8362-1fc36ed7ef17}, !- Handle
  Surface 28,                             !- Name
  Wall,                                   !- Surface Type
  ,                                       !- Construction Name
  {80f7130d-8710-4236-8c04-9b040d717b93}, !- Space Name
  Outdoors,                               !- Outside Boundary Condition
  ,                                       !- Outside Boundary Condition Object
  SunExposed,                             !- Sun Exposure
  WindExposed,                            !- Wind Exposure
  ,                                       !- View Factor to Ground
  ,                                       !- Number of Vertices
  8.27456355344496, -8.27456355344499, 0.8325, !- X,Y,Z Vertex 1 {m}
  8.27456355344496, -8.27456355344499, 0, !- X,Y,Z Vertex 2 {m}
  -4.28393270927588e-14, 4.11908023793705e-13, 0, !- X,Y,Z Vertex 3 {m}
  -4.28393270927588e-14, 4.11908023793705e-13, 0.8325; !- X,Y,Z Vertex 4 {m}

OS:Surface,
  {00a00b56-c3dc-4947-95de-c231d5303cf1}, !- Handle
  Surface 29,                             !- Name
  Wall,                                   !- Surface Type
  ,                                       !- Construction Name
  {80f7130d-8710-4236-8c04-9b040d717b93}, !- Space Name
  Outdoors,                               !- Outside Boundary Condition
  ,                                       !- Outside Boundary Condition Object
  SunExposed,                             !- Sun Exposure
  WindExposed,                            !- Wind Exposure