
OS:Version,
  {9b296f76-0cc1-45cc-9fe0-b66ac415b78f}, !- Handle
  1.8.0;                                  !- Version Identifier

OS:BuildingStory,
  {f7783a28-931e-43ab-84ab-0fa7f0290194}, !- Handle
  smallforcfd:Story 1,                    !- Name
  0,                                      !- Nominal Z Coordinate {m}
  1.24875,                                !- Nominal Floor to Floor Height {m}
  ,                                       !- Default Construction Set Name
  ,                                       !- Default Schedule Set Name
  ;                                       !- Group Rendering Name

OS:Space,
  {632ad69e-7220-4471-98f4-ea1431ea8797}, !- Handle
  0 Core Space,                           !- Name
  ,                                       !- Space Type Name
  ,                                       !- Default Construction Set Name
  ,                                       !- Default Schedule Set Name
  -0,                                     !- Direction of Relative North {deg}
  -2.96277741317164,                      !- X Origin {m}
  -23.65272183069,                        !- Y Origin {m}
  0,                                      !- Z Origin {m}
  {f7783a28-931e-43ab-84ab-0fa7f0290194}, !- Building Story Name
  {85378c1a-a0c3-4be3-b926-dad726fadd7a}; !- Thermal Zone Name

OS:Surface,
  {8168eafc-8ca5-4027-876f-d8c934eca4a7}, !- Handle
  Surface 1,                              !- Name
  Floor,                                  !- Surface Type
  ,                                       !- Construction Name
  {632ad69e-7220-4471-98f4-ea1431ea8797}, !- Space Name
  Ground,                                 !- Outside Boundary Condition
  ,                                       !- Outside Boundary Condition Object
  NoSun,                                  !- Sun Exposure
  NoWind,                                 !- Wind Exposure
  ,                                       !- View Factor to Ground
  ,                                       !- Number of Vertices
  -3.5527136788005e-15, 1.06581410364015e-14, 0, !- X,Y,Z Vertex 1 {m}
  -10.3449722087592, 10.3449722087592, 0, !- X,Y,Z Vertex 2 {m}
  -20.6899444175184, 20.6899444175184, 0, !- X,Y,Z Vertex 3 {m}
  -11.8181113362312, 29.5617774988056, 0, !- X,Y,Z Vertex 4 {m}
  -2.94627825494394, 38.4336105800928, 0, !- X,Y,Z Vertex 5 {m}
  5.92555482634327, 47.30544366138, 0,    !- X,Y,Z Vertex 6 {m}
  16.2705270351024, 36.9604714526208, 0,  !- X,Y,Z Vertex 7 {m}
  26.6154992438616, 26.6154992438616, 0,  !- X,Y,Z Vertex 8 {m}
  17.7436661625744, 17.7436661625744, 0,  !- X,Y,Z Vertex 9 {m}
  8.87183308128722, 8.87183308128721, 0;  !- X,Y,Z Vertex 10 {m}

OS:Surface,
  {4a5e8724-55b9-4d90-992d-a9afb9fc9df3}, !- Handle
  Surface 2,                              !- Name
  Wall,                                   !- Surface Type
  ,                                       !- Construction Name
  {632ad69e-7220-4471-98f4-ea1431ea8797}, !- Space Name
  Outdoors,                               !- Outside Boundary Condition
  ,                                       !- Outside Boundary Condition Object
  SunExposed,                             !- Sun Exposure
  WindExposed,                            !- Wind Exposure
  ,                                       !- View Factor to Ground
  ,                                       !- Number of Vertices
  -10.3449722087592, 10.3449722087592, 1.24875, !- X,Y,Z Vertex 1 {m}
  -10.3449722087592, 10.3449722087592, 0, !- X,Y,Z Vertex 2 {m}
  -3.5527136788005e-15, 1.06581410364015e-14, 0, !- X,Y,Z Vertex 3 {m}
  -3.5527136788005e-15, 1.06581410364015e-14, 1.24875; !- X,Y,Z Vertex 4 {m}

OS:Surface,
  {baa6549d-c5ff-496c-9a13-c228bc53d591}, !- Handle
  Surface 3,                              !- Name
  Wall,                                   !- Surface Type
  ,                                       !- Construction Name
  {632ad69e-7220-4471-98f4-ea1431ea8797}, !- Space Name
  Outdoors,                               !- Outside Boundary Condition
  ,                                       !- Outside Boundary Condition Object
  SunExposed,                             !- Sun Exposure
  WindExposed,                            !- Wind Exposure
  ,                                       !- View Factor to Ground
  ,                                       !- Number of Vertices
  -20.6899444175184, 20.6899444175184, 1.24875, !- X,Y,Z Vertex 1 {m}
  -20.6899444175184, 20.6899444175184, 0, !- X,Y,Z Vertex 2 {m}
  -10.3449722087592, 10.3449722087592, 0, !- X,Y,Z Vertex 3 {m}
  -10.3449722087592, 10.3449722087592, 1.24875; !- X,Y,Z Vertex 4 {m}

OS:Surface,
  {a9e2a1b2-96b3-45ab-b508-ebadd749b22a}, !- Handle
  Surface 4,                              !- Name
  Wall,                                   !- Surface Type
  ,                                       !- Construction Name
  {632ad69e-7220-4471-98f4-ea1431ea8797}, !- Space Name
  Outdoors,                               !- Outside Boundary Condition
  ,                                       !- Outside Boundary Condition Object
  SunExposed,                             !- Sun Exposure
  WindExposed,                            !- Wind Exposure
  ,                                       !- View Factor to Ground
  ,                                       !- Number of Vertices
  -11.8181113362312, 29.5617774988056, 1.24875, !- X,Y,Z Vertex 1 {m}
  -11.8181113362312, 29.5617774988056, 0, !- X,Y,Z Vertex 2 {m}
  -20.6899444175184, 20.6899444175184, 0, !- X,Y,Z Vertex 3 {m}
  -20.6899444175184, 20.6899444175184, 1.24875; !- X,Y,Z Vertex 4 {m}

OS:Surface,
  {7c186b6b-1e9c-4427-938f-4e455923fcfe}, !- Handle
  Surface 5,                              !- Name
  Wall,                                   !- Surface Type
  ,                                       !- Construction Name
  {632ad69e-7220-4471-98f4-ea1431ea8797}, !- Space Name
  Outdoors,                               !- Outside Boundary Condition
  ,                                       !- Outside Boundary Condition Object
  SunExposed,                             !- Sun Exposure
  WindExposed,                            !- Wind Exposure
  ,                                       !- View Factor to Ground
  ,                                       !- Number of Vertices
  -2.94627825494394, 38.4336105800928, 1.24875, !- X,Y,Z Vertex 1 {m}
  -2.94627825494394, 38.4336105800928, 0, !- X,Y,Z Vertex 2 {m}
  -11.8181113362312, 29.5617774988056, 0, !- X,Y,Z Vertex 3 {m}
  -11.8181113362312, 29.5617774988056, 1.24875; !- X,Y,Z Vertex 4 {m}

OS:Surface,
  {7ee8a41f-e02d-4b82-863f-4d4a3860b20a}, !- Handle
  Surface 6,                              !- Name
  Wall,                                   !- Surface Type
  ,                                       !- Construction Name
  {632ad69e-7220-4471-98f4-ea1431ea8797}, !- Space Name
  Outdoors,                               !- Outside Boundary Condition
  ,                                       !- Outside Boundary Condition Object
  SunExposed,                             !- Sun Exposure
  WindExposed,                            !- Wind Exposure
  ,                                       !- View Factor to Ground
  ,                                       !- Number of Vertices
  5.92555482634327, 47.30544366138, 1.24875, !- X,Y,Z Vertex 1 {m}
  5.92555482634327, 47.30544366138, 0,    !- X,Y,Z Vertex 2 {m}
  -2.94627825494394, 38.4336105800928, 0, !- X,Y,Z Vertex 3 {m}
  -2.94627825494394, 38.4336105800928, 1.24875; !- X,Y,Z Vertex 4 {m}

OS:Surface,
  {e33fc140-876b-467e-afe2-8edbcea375f9}, !- Handle
  Surface 7,                              !- Name
  Wall,                                   !- Surface Type
  ,                                       !- Construction Name
  {632ad69e-7220-4471-98f4-ea1431ea8797}, !- Space Name
  Outdoors,                               !- Outside Boundary Condition
  ,                                       !- Outside Boundary Condition Object
  SunExposed,                             !- Sun Exposure
  WindExposed,                            !- Wind Exposure
  ,                                       !- View Factor to Ground
  ,                                       !- Number of Vertices
  16.2705270351024, 36.9604714526208, 1.24875, !- X,Y,Z Vertex 1 {m}
  16.2705270351024, 36.9604714526208, 0,  !- X,Y,Z Vertex 2 {m}
  5.92555482634327, 47.30544366138, 0,    !- X,Y,Z Vertex 3 {m}
  5.92555482634327, 47.30544366138, 1.24875; !- X,Y,Z Vertex 4 {m}

OS:Surface,
  {57ced081-d195-4b8f-bf8e-3300076f5c51}, !- Handle
  Surface 8,                              !- Name
  Wall,                                   !- Surface Type
  ,                                       !- Construction Name
  {632ad69e-7220-4471-98f4-ea1431ea8797}, !- Space Name
  Outdoors,                               !- Outside Boundary Condition
  ,                                       !- Outside Boundary Condition Object
  SunExposed,                             !- Sun Exposure
  WindExposed,                            !- Wind Exposure
  ,                                       !- View Factor to Ground
  ,                                       !- Number of Vertices
  26.6154992438616, 26.6154992438616, 1.24875, !- X,Y,Z Vertex 1 {m}
  26.6154992438616, 26.6154992438616, 0,  !- X,Y,Z Vertex 2 {m}
  16.2705270351024, 36.9604714526208, 0,  !- X,Y,Z Vertex 3 {m}
  16.2705270351024, 36.9604714526208, 1.24875; !- X,Y,Z Vertex 4 {m}

OS:Surface,
  {057bdad5-0fec-4549-9fd5-11707a9939cf}, !- Handle
  Surface 9,                              !- Name
  Wall,                                   !- Surface Type
  ,                                       !- Construction Name
  {632ad69e-7220-4471-98f4-ea1431ea8797}, !- Space Name
  Outdoors,                               !- Outside Boundary Condition
  ,                                       !- Outside Boundary Condition Object
  SunExposed,                             !- Sun Exposure
  WindExposed,                            !- Wind Exposure
  ,                                       !- View Factor to Ground
  ,                                       !- Number of Vertices
  17.7436661625744, 17.7436661625744, 1.24875, !- X,Y,Z Vertex 1 {m}
  17.7436661625744, 17.7436661625744, 0,  !- X,Y,Z Vertex 2 {m}
  26.6154992438616, 26.6154992438616, 0,  !- X,Y,Z Vertex 3 {m}
  26.6154992438616, 26.6154992438616, 1.24875; !- X,Y,Z Vertex 4 {m}

OS:Surface,
  {76c5ff83-6067-4290-8cdd-ea1535a1acfb}, !- Handle
  Surface 10,                             !- Name
  Wall,                                   !- Surface Type
  ,                                       !- Construction Name
  {632ad69e-7220-4471-98f4-ea1431ea8797}, !- Space Name
  Outdoors,                               !- Outside Boundary Condition
  ,                                       !- Outside Boundary Condition Object
  SunExposed,                             !- Sun Exposure
  WindExposed,                            !- Wind Exposure
  ,                                       !- View Factor to Ground
  ,                                       !- Number of Vertices
  8.87183308128722, 8.87183308128721, 1.24875, !- X,Y,Z Vertex 1 {m}
  8.87183308128722, 8.87183308128721, 0,  !- X,Y,Z Vertex 2 {m}
  17.7436661625744, 17.7436661625744, 0,  !- X,Y,Z Vertex 3 {m}
  17.7436661625744, 17.7436661625744, 1.24875; !- X,Y,Z Vertex 4 {m}

OS:Surface,
  {5f4a18b7-24ed-419d-bb53-c9a3875187de}, !- Handle
  Surface 11,                             !- Name
  Wall,                                   !- Surface Type
  ,                                       !- Construction Name
  {632ad69e-7220-4471-98f4-ea1431ea8797}, !- Space Name
  Outdoors,                               !- Outside Boundary Condition
  ,                                       !- Outside Boundary Condition Object
  SunExposed,                             !- Sun Exposure
  WindExposed,                            !- Wind Exposure
  ,                                       !- View Factor to Ground
  ,                                       !- Number of Vertices
  -3.5527136788005e-15, 1.06581410364015e-14, 1.24875, !- X,Y,Z Vertex 1 {m}
  -3.5527136788005e-15, 1.06581410364015e-14, 0, !- X,Y,Z Vertex 2 {m}
  8.87183308128722, 8.87183308128721, 0,  !- X,Y,Z Vertex 3 {m}
  8.87183308128722, 8.87183308128721, 1.24875; !- X,Y,Z Vertex 4 {m}

OS:Surface,
  {781e4bc2-8b1a-447d-9a40-040513fda563}, !- Handle
  Surface 12,                             !- Name
  RoofCeiling,                            !- Surface Type
  ,                                       !- Construction Name
  {632ad69e-7220-4471-98f4-ea1431ea8797}, !- Space Name
  Surface,                                !- Outside Boundary Condition
  {a13a28d2-f09b-4d5b-b671-313329f73d5e}, !- Outside Boundary Condition Object
  NoSun,                                  !- Sun Exposure
  NoWind,                                 !- Wind Exposure
  ,                                       !- View Factor to Ground
  ,                                       !- Number of Vertices
  8.87183308128722, 8.87183308128721, 1.24875, !- X,Y,Z Vertex 1 {m}
  17.7436661625744, 17.7436661625744, 1.24875, !- X,Y,Z Vertex 2 {m}
  26.6154992438616, 26.6154992438616, 1.24875, !- X,Y,Z Vertex 3 {m}
  16.2705270351024, 36.9604714526208, 1.24875, !- X,Y,Z Vertex 4 {m}
  5.92555482634327, 47.30544366138, 1.24875, !- X,Y,Z Vertex 5 {m}
  -2.94627825494394, 38.4336105800928, 1.24875, !- X,Y,Z Vertex 6 {m}
  -11.8181113362312, 29.5617774988056, 1.24875, !- X,Y,Z Vertex 7 {m}
  -20.6899444175184, 20.6899444175184, 1.24875, !- X,Y,Z Vertex 8 {m}
  -10.3449722087592, 10.3449722087592, 1.24875, !- X,Y,Z Vertex 9 {m}
  -3.5527136788005e-15, 1.06581410364015e-14, 1.24875; !- X,Y,Z Vertex 10 {m}

OS:BuildingStory,
  {1c72f1e3-8d82-42ae-aeb6-287822487b61}, !- Handle
  smallforcfd:Story 2,                    !- Name
  1.24875,                                !- Nominal Z Coordinate {m}
  0.8325,                                 !- Nominal Floor to Floor Height {m}
  ,                                       !- Default Construction Set Name
  ,                                       !- Default Schedule Set Name
  ;                                       !- Group Rendering Name

OS:Space,
  {0ceab2a5-6915-4ccb-ae9c-87e5b0763a5a}, !- Handle
  0 Core Space 1,                         !- Name
  ,                                       !- Space Type Name
  ,                                       !- Default Construction Set Name
  ,                                       !- Default Schedule Set Name
  -0,                                     !- Direction of Relative North {deg}
  -2.96277741317164,                      !- X Origin {m}
  -23.65272183069,                        !- Y Origin {m}
  1.24875,                                !- Z Origin {m}
  {1c72f1e3-8d82-42ae-aeb6-287822487b61}, !- Building Story Name
  {c67d1359-f2b2-42a1-b1b4-57f810a16e51}; !- Thermal Zone Name

OS:Surface,
  {a13a28d2-f09b-4d5b-b671-313329f73d5e}, !- Handle
  Surface 13,                             !- Name
  Floor,                                  !- Surface Type
  ,                                       !- Construction Name
  {0ceab2a5-6915-4ccb-ae9c-87e5b0763a5a}, !- Space Name
  Surface,                                !- Outside Boundary Condition
  {781e4bc2-8b1a-447d-9a40-040513fda563}, !- Outside Boundary Condition Object
  NoSun,                                  !- Sun Exposure
  NoWind,                                 !- Wind Exposure
  ,                                       !- View Factor to Ground
  ,                                       !- Number of Vertices
  -3.5527136788005e-15, 1.06581410364015e-14, 0, !- X,Y,Z Vertex 1 {m}
  -10.3449722087592, 10.3449722087592, 0, !- X,Y,Z Vertex 2 {m}
  -20.6899444175184, 20.6899444175184, 0, !- X,Y,Z Vertex 3 {m}
  -11.8181113362312, 29.5617774988056, 0, !- X,Y,Z Vertex 4 {m}
  -2.94627825494394, 38.4336105800928, 0, !- X,Y,Z Vertex 5 {m}
  5.92555482634327, 47.30544366138, 0,    !- X,Y,Z Vertex 6 {m}
  16.2705270351024, 36.9604714526208, 0,  !- X,Y,Z Vertex 7 {m}
  26.6154992438616, 26.6154992438616, 0,  !- X,Y,Z Vertex 8 {m}
  17.7436661625744, 17.7436661625744, 0,  !- X,Y,Z Vertex 9 {m}
  8.87183308128722, 8.87183308128721, 0;  !- X,Y,Z Vertex 10 {m}

OS:Surface,
  {730b5854-55e2-45ee-8ca8-6d677c71a49d}, !- Handle
  Surface 14,                             !- Name
  Wall,                                   !- Surface Type
  ,                                       !- Construction Name
  {0ceab2a5-6915-4ccb-ae9c-87e5b0763a5a}, !- Space Name
  Outdoors,                               !- Outside Boundary Condition
  ,                                       !- Outside Boundary Condition Object
  SunExposed,                             !- Sun Exposure
  WindExposed,                            !- Wind Exposure
  ,                                       !- View Factor to Ground
  ,                                       !- Number of Vertices
  -10.3449722087592, 10.3449722087592, 0.8325, !- X,Y,Z Vertex 1 {m}
  -10.3449722087592, 10.3449722087592, 0, !- X,Y,Z Vertex 2 {m}
  -3.5527136788005e-15, 1.06581410364015e-14, 0, !- X,Y,Z Vertex 3 {m}
  -3.5527136788005e-15, 1.06581410364015e-14, 0.8325; !- X,Y,Z Vertex 4 {m}

OS:Surface,
  {0604809b-e21e-458f-9f73-e2bfad6b669a}, !- Handle
  Surface 15,                             !- Name
  Wall,                                   !- Surface Type
  ,                                       !- Construction Name
  {0ceab2a5-6915-4ccb-ae9c-87e5b0763a5a}, !- Space Name
  Outdoors,                               !- Outside Boundary Condition
  ,                                       !- Outside Boundary Condition Object
  SunExposed,                             !- Sun Exposure
  WindExposed,                            !- Wind Exposure
  ,                                       !- View Factor to Ground
  ,                                       !- Number of Vertices
  -20.6899444175184, 20.6899444175184, 0.8325, !- X,Y,Z Vertex 1 {m}
  -20.6899444175184, 20.6899444175184, 0, !- X,Y,Z Vertex 2 {m}
  -10.3449722087592, 10.3449722087592, 0, !- X,Y,Z Vertex 3 {m}
  -10.3449722087592, 10.3449722087592, 0.8325; !- X,Y,Z Vertex 4 {m}

OS:Surface,
  {c0c19f3d-d562-4208-9055-1259955760ee}, !- Handle
  Surface 16,                             !- Name
  Wall,                                   !- Surface Type
  ,                                       !- Construction Name
  {0ceab2a5-6915-4ccb-ae9c-87e5b0763a5a}, !- Space Name
  Outdoors,                               !- Outside Boundary Condition
  ,                                       !- Outside Boundary Condition Object
  SunExposed,                             !- Sun Exposure
  WindExposed,                            !- Wind Exposure
  ,                                       !- View Factor to Ground
  ,                                       !- Number of Vertices
  -11.8181113362312, 29.5617774988056, 0.8325, !- X,Y,Z Vertex 1 {m}
  -11.8181113362312, 29.5617774988056, 0, !- X,Y,Z Vertex 2 {m}
  -20.6899444175184, 20.6899444175184, 0, !- X,Y,Z Vertex 3 {m}
  -20.6899444175184, 20.6899444175184, 0.8325; !- X,Y,Z Vertex 4 {m}

OS:Surface,
  {8b230644-27d2-4458-92fb-a143ae2eb701}, !- Handle
  Surface 17,                             !- Name
  Wall,                                   !- Surface Type
  ,                                       !- Construction Name
  {0ceab2a5-6915-4ccb-ae9c-87e5b0763a5a}, !- Space Name
  Outdoors,                               !- Outside Boundary Condition
  ,                                       !- Outside Boundary Condition Object
  SunExposed,                             !- Sun Exposure
  WindExposed,                            !- Wind Exposure
  ,                                       !- View Factor to Ground
  ,                                       !- Number of Vertices
  -2.94627825494394, 38.4336105800928, 0.8325, !- X,Y,Z Vertex 1 {m}
  -2.94627825494394, 38.4336105800928, 0, !- X,Y,Z Vertex 2 {m}
  -11.8181113362312, 29.5617774988056, 0, !- X,Y,Z Vertex 3 {m}
  -11.8181113362312, 29.5617774988056, 0.8325; !- X,Y,Z Vertex 4 {m}

OS:Surface,
  {bf7bedc1-973a-4671-9824-83df724e8b63}, !- Handle
  Surface 18,                             !- Name
  Wall,                                   !- Surface Type
  ,                                       !- Construction Name
  {0ceab2a5-6915-4ccb-ae9c-87e5b0763a5a}, !- Space Name
  Outdoors,                               !- Outside Boundary Condition
  ,                                       !- Outside Boundary Condition Object
  SunExposed,                             !- Sun Exposure
  WindExposed,                            !- Wind Exposure
  ,                                       !- View Factor to Ground
  ,                                       !- Number of Vertices
  5.92555482634327, 47.30544366138, 0.8325, !- X,Y,Z Vertex 1 {m}
  5.92555482634327, 47.30544366138, 0,    !- X,Y,Z Vertex 2 {m}
  -2.94627825494394, 38.4336105800928, 0, !- X,Y,Z Vertex 3 {m}
  -2.94627825494394, 38.4336105800928, 0.8325; !- X,Y,Z Vertex 4 {m}

OS:Surface,
  {9aae08c1-c1ad-4287-aada-c0a2628c24bb}, !- Handle
  Surface 19,                             !- Name
  Wall,                                   !- Surface Type
  ,                                       !- Construction Name
  {0ceab2a5-6915-4ccb-ae9c-87e5b0763a5a}, !- Space Name
  Outdoors,                               !- Outside Boundary Condition
  ,                                       !- Outside Boundary Condition Object
  SunExposed,                             !- Sun Exposure
  WindExposed,                            !- Wind Exposure
  ,                                       !- View Factor to Ground
  ,                                       !- Number of Vertices
  16.2705270351024, 36.9604714526208, 0.8325, !- X,Y,Z Vertex 1 {m}
  16.2705270351024, 36.9604714526208, 0,  !- X,Y,Z Vertex 2 {m}
  5.92555482634327, 47.30544366138, 0,    !- X,Y,Z Vertex 3 {m}
  5.92555482634327, 47.30544366138, 0.8325; !- X,Y,Z Vertex 4 {m}

OS:Surface,
  {f6149c18-c7f8-4fe9-b50c-36173a9a0d15}, !- Handle
  Surface 20,                             !- Name
  Wall,                                   !- Surface Type
  ,                                       !- Construction Name
  {0ceab2a5-6915-4ccb-ae9c-87e5b0763a5a}, !- Space Name
  Outdoors,                               !- Outside Boundary Condition
  ,                                       !- Outside Boundary Condition Object
  SunExposed,                             !- Sun Exposure
  WindExposed,                            !- Wind Exposure
  ,                                       !- View Factor to Ground
  ,                                       !- Number of Vertices
  26.6154992438616, 26.6154992438616, 0.8325, !- X,Y,Z Vertex 1 {m}
  26.6154992438616, 26.6154992438616, 0,  !- X,Y,Z Vertex 2 {m}
  16.2705270351024, 36.9604714526208, 0,  !- X,Y,Z Vertex 3 {m}
  16.2705270351024, 36.9604714526208, 0.8325; !- X,Y,Z Vertex 4 {m}

OS:Surface,
  {e419c5ae-8b3e-44a1-9a48-5c93db680e31}, !- Handle
  Surface 21,                             !- Name
  Wall,                                   !- Surface Type
  ,                                       !- Construction Name
  {0ceab2a5-6915-4ccb-ae9c-87e5b0763a5a}, !- Space Name
  Outdoors,                               !- Outside Boundary Condition
  ,                                       !- Outside Boundary Condition Object
  SunExposed,                             !- Sun Exposure
  WindExposed,                            !- Wind Exposure
  ,                                       !- View Factor to Ground
  ,                                       !- Number of Vertices
  17.7436661625744, 17.7436661625744, 0.8325, !- X,Y,Z Vertex 1 {m}
  17.7436661625744, 17.7436661625744, 0,  !- X,Y,Z Vertex 2 {m}
  26.6154992438616, 26.6154992438616, 0,  !- X,Y,Z Vertex 3 {m}
  26.6154992438616, 26.6154992438616, 0.8325; !- X,Y,Z Vertex 4 {m}

OS:Surface,
  {08f3eb8a-d472-4297-bbe0-10d0d080e9ab}, !- Handle
  Surface 22,                             !- Name
  Wall,                                   !- Surface Type
  ,                                       !- Construction Name
  {0ceab2a5-6915-4ccb-ae9c-87e5b0763a5a}, !- Space Name
  Outdoors,                               !- Outside Boundary Condition
  ,                                       !- Outside Boundary Condition Object
  SunExposed,                             !- Sun Exposure
  WindExposed,                            !- Wind Exposure
  ,                                       !- View Factor to Ground
  ,                                       !- Number of Vertices
  8.87183308128722, 8.87183308128721, 0.8325, !- X,Y,Z Vertex 1 {m}
  8.87183308128722, 8.87183308128721, 0,  !- X,Y,Z Vertex 2 {m}
  17.7436661625744, 17.7436661625744, 0,  !- X,Y,Z Vertex 3 {m}
  17.7436661625744, 17.7436661625744, 0.8325; !- X,Y,Z Vertex 4 {m}

OS:Surface,
  {beeb57e2-6e75-4c70-a78b-a2eec7bfe4c9}, !- Handle
  Surface 23,                             !- Name
  Wall,                                   !- Surface Type
  ,                                       !- Construction Name
  {0ceab2a5-6915-4ccb-ae9c-87e5b0763a5a}, !- Space Name
  Outdoors,                               !- Outside Boundary Condition
  ,                                       !- Outside Boundary Condition Object
  SunExposed,                             !- Sun Exposure
  WindExposed,                            !- Wind Exposure
  ,                                       !- View Factor to Ground
  ,                                       !- Number of Vertices
  -3.5527136788005e-15, 1.06581410364015e-14, 0.8325, !- X,Y,Z Vertex 1 {m}
  -3.5527136788005e-15, 1.06581410364015e-14, 0, !- X,Y,Z Vertex 2 {m}
  8.87183308128722, 8.87183308128721, 0,  !- X,Y,Z Vertex 3 {m}
  8.87183308128722, 8.87183308128721, 0.8325; !- X,Y,Z Vertex 4 {m}

OS:Surface,
  {72091126-1d77-4cd9-8bb0-3ab1e65cb752}, !- Handle
  Surface 24,                             !- Name
  RoofCeiling,                            !- Surface Type
  ,                                       !- Construction Name
  {0ceab2a5-6915-4ccb-ae9c-87e5b0763a5a}, !- Space Name
  Surface,                                !- Outside Boundary Condition
  {f537f523-e8cb-4298-831f-4a11efe84907}, !- Outside Boundary Condition Object
  NoSun,                                  !- Sun Exposure
  NoWind,                                 !- Wind Exposure
  ,                                       !- View Factor to Ground
  ,                                       !- Number of Vertices
  8.87183308128722, 8.87183308128721, 0.8325, !- X,Y,Z Vertex 1 {m}
  17.7436661625744, 17.7436661625744, 0.8325, !- X,Y,Z Vertex 2 {m}
  26.6154992438616, 26.6154992438616, 0.8325, !- X,Y,Z Vertex 3 {m}
  16.2705270351024, 36.9604714526208, 0.8325, !- X,Y,Z Vertex 4 {m}
  5.92555482634327, 47.30544366138, 0.8325, !- X,Y,Z Vertex 5 {m}
  -2.94627825494394, 38.4336105800928, 0.8325, !- X,Y,Z Vertex 6 {m}
  -11.8181113362312, 29.5617774988056, 0.8325, !- X,Y,Z Vertex 7 {m}
  -20.6899444175184, 20.6899444175184, 0.8325, !- X,Y,Z Vertex 8 {m}
  -10.3449722087592, 10.3449722087592, 0.8325, !- X,Y,Z Vertex 9 {m}
  -3.5527136788005e-15, 1.06581410364015e-14, 0.8325; !- X,Y,Z Vertex 10 {m}

OS:SubSurface,
  {551d5621-c741-4940-b0df-194ef6961559}, !- Handle
  Sub Surface 1,                          !- Name
  FixedWindow,                            !- Sub Surface Type
  ,                                       !- Construction Name
  {0604809b-e21e-458f-9f73-e2bfad6b669a}, !- Surface Name
  ,                                       !- Outside Boundary Condition Object
  ,                                       !- View Factor to Ground
  ,                                       !- Shading Control Name
  ,                                       !- Frame and Divider Name
  ,                                       !- Multiplier
  ,                                       !- Number of Vertices
  -20.6719839052763, 20.6719839052763, 0.798346415098222, !- X,Y,Z Vertex 1 {m}
  -20.6719839052763, 20.6719839052763, 0.0254, !- X,Y,Z Vertex 2 {m}
  -10.3629327210013, 10.3629327210013, 0.0254, !- X,Y,Z Vertex 3 {m}
  -10.3629327210013, 10.3629327210013, 0.798346415098222; !- X,Y,Z Vertex 4 {m}

OS:SubSurface,
  {c3895de5-25fd-41d4-95da-175855a1a93f}, !- Handle
  Sub Surface 2,                          !- Name
  FixedWindow,                            !- Sub Surface Type
  ,                                       !- Construction Name
  {08f3eb8a-d472-4297-bbe0-10d0d080e9ab}, !- Surface Name
  ,                                       !- Outside Boundary Condition Object
  ,                                       !- View Factor to Ground
  ,                                       !- Shading Control Name
  ,                                       !- Frame and Divider Name
  ,                                       !- Multiplier
  ,                                       !- Number of Vertices
  8.88979359352936, 8.88979359352935, 0.798793882243729, !- X,Y,Z Vertex 1 {m}
  8.88979359352936, 8.88979359352935, 0.0254, !- X,Y,Z Vertex 2 {m}
  17.7257056503323, 17.7257056503323, 0.0254, !- X,Y,Z Vertex 3 {m}
  17.7257056503323, 17.7257056503323, 0.798793882243729; !- X,Y,Z Vertex 4 {m}

OS:SubSurface,
  {50df2802-95c1-41fd-ba9e-df83fc68e8c7}, !- Handle
  Sub Surface 3,                          !- Name
  FixedWindow,                            !- Sub Surface Type
  ,                                       !- Construction Name
  {730b5854-55e2-45ee-8ca8-6d677c71a49d}, !- Surface Name
  ,                                       !- Outside Boundary Condition Object
  ,                                       !- View Factor to Ground
  ,                                       !- Shading Control Name
  ,                                       !- Frame and Divider Name
  ,                                       !- Multiplier
  ,                                       !- Number of Vertices
  -10.3270116965171, 10.3270116965171, 0.798346415098222, !- X,Y,Z Vertex 1 {m}
  -10.3270116965171, 10.3270116965171, 0.0254, !- X,Y,Z Vertex 2 {m}