
OS:Version,
  {6f51bdf1-0c9a-4aae-ade7-880cc5a1086c}, !- Handle
  1.7.0;                                  !- Version Identifier

OS:BuildingStory,
  {26c746c3-3443-44f9-8413-890e08834728}, !- Handle
  Story 1,                                !- Name
  0,                                      !- Nominal Z Coordinate {m}
  1.005,                                  !- Nominal Floor to Floor Height {m}
  ,                                       !- Default Construction Set Name
  ,                                       !- Default Schedule Set Name
  ;                                       !- Group Rendering Name

OS:Space,
  {4060d831-ad54-4ea3-9758-55b399d9141c}, !- Handle
  0 Core Space,                           !- Name
  ,                                       !- Space Type Name
  ,                                       !- Default Construction Set Name
  ,                                       !- Default Schedule Set Name
  -0,                                     !- Direction of Relative North {deg}
  -55.0553339831846,                      !- X Origin {m}
  11.667261889578,                        !- Y Origin {m}
  0,                                      !- Z Origin {m}
  {26c746c3-3443-44f9-8413-890e08834728}, !- Building Story Name
  {6c9c3126-170e-45f8-9bfa-e6c98bfe842c}; !- Thermal Zone Name

OS:Surface,
  {83676b31-8ab1-45df-b676-d2d75328a74d}, !- Handle
  Surface 1,                              !- Name
  Floor,                                  !- Surface Type
  ,                                       !- Construction Name
  {4060d831-ad54-4ea3-9758-55b399d9141c}, !- Space Name
  Ground,                                 !- Outside Boundary Condition
  ,                                       !- Outside Boundary Condition Object
  NoSun,                                  !- Sun Exposure
  NoWind,                                 !- Wind Exposure
  ,                                       !- View Factor to Ground
  ,                                       !- Number of Vertices
  -1.4210854715202e-14, -3.19744231092045e-14, 0, !- X,Y,Z Vertex 1 {m}
  3.91151847921499, 3.91151847921497, 0,  !- X,Y,Z Vertex 2 {m}
  7.82303695842999, 7.82303695842997, 0,  !- X,Y,Z Vertex 3 {m}
  11.734555437645, 11.734555437645, 0,    !- X,Y,Z Vertex 4 {m}
  15.64607391686, 15.64607391686, 0,      !- X,Y,Z Vertex 5 {m}
  19.2984147665288, 11.9937330671912, 0,  !- X,Y,Z Vertex 6 {m}
  22.9507556161976, 8.34139221752247, 0,  !- X,Y,Z Vertex 7 {m}
  26.6030964658664, 4.68905136785367, 0,  !- X,Y,Z Vertex 8 {m}
  30.2554373155352, 1.03671051818487, 0,  !- X,Y,Z Vertex 9 {m}
  33.907778165204, -2.61563033148394, 0,  !- X,Y,Z Vertex 10 {m}
  37.5601190148727, -6.26797118115273, 0, !- X,Y,Z Vertex 11 {m}
  41.2124598645415, -9.92031203082151, 0, !- X,Y,Z Vertex 12 {m}
  44.8648007142103, -13.5726528804903, 0, !- X,Y,Z Vertex 13 {m}
  48.5171415638791, -17.2249937301591, 0, !- X,Y,Z Vertex 14 {m}
  52.1694824135479, -20.8773345798279, 0, !- X,Y,Z Vertex 15 {m}
  55.8218232632167, -24.5296754294966, 0, !- X,Y,Z Vertex 16 {m}
  59.4741641128855, -28.1820162791654, 0, !- X,Y,Z Vertex 17 {m}
  63.0523687757781, -24.6038116162728, 0, !- X,Y,Z Vertex 18 {m}
  66.6305734386707, -21.0256069533802, 0, !- X,Y,Z Vertex 19 {m}
  70.2087781015634, -17.4474022904876, 0, !- X,Y,Z Vertex 20 {m}
  73.786982764456, -13.8691976275949, 0,  !- X,Y,Z Vertex 21 {m}
  77.3651874273486, -10.2909929647023, 0, !- X,Y,Z Vertex 22 {m}
  80.9433920902412, -6.71278830180967, 0, !- X,Y,Z Vertex 23 {m}
  84.5215967531339, -3.13458363891704, 0, !- X,Y,Z Vertex 24 {m}
  88.0998014160265, 0.443621023975567, 0, !- X,Y,Z Vertex 25 {m}
  91.6780060789191, 4.02182568686817, 0,  !- X,Y,Z Vertex 26 {m}
  95.9880205398998, -0.288188774112433, 0, !- X,Y,Z Vertex 27 {m}
  100.29803500088, -4.59820323509305, 0,  !- X,Y,Z Vertex 28 {m}
  104.608049461861, -8.90821769607368, 0, !- X,Y,Z Vertex 29 {m}
  100.927286701638, -12.5889804562963, 0, !- X,Y,Z Vertex 30 {m}
  97.2465239414159, -16.2697432165189, 0, !- X,Y,Z Vertex 31 {m}
  93.5657611811933, -19.9505059767415, 0, !- X,Y,Z Vertex 32 {m}
  89.8849984209707, -23.631268736964, 0,  !- X,Y,Z Vertex 33 {m}
  86.2042356607481, -27.3120314971866, 0, !- X,Y,Z Vertex 34 {m}
  82.5234729005255, -30.9927942574092, 0, !- X,Y,Z Vertex 35 {m}
  78.8427101403029, -34.6735570176318, 0, !- X,Y,Z Vertex 36 {m}
  75.1619473800803, -38.3543197778544, 0, !- X,Y,Z Vertex 37 {m}
  71.4811846198577, -42.035082538077, 0,  !- X,Y,Z Vertex 38 {m}
  67.8004218596351, -45.7158452982996, 0, !- X,Y,Z Vertex 39 {m}
  64.1196590994125, -49.3966080585221, 0, !- X,Y,Z Vertex 40 {m}
  60.43889633919, -53.0773708187447, 0,   !- X,Y,Z Vertex 41 {m}
  56.7581335789674, -56.7581335789673, 0, !- X,Y,Z Vertex 42 {m}
  53.2107502302819, -53.2107502302819, 0, !- X,Y,Z Vertex 43 {m}
  49.6633668815964, -49.6633668815964, 0, !- X,Y,Z Vertex 44 {m}
  46.115983532911, -46.1159835329109, 0,  !- X,Y,Z Vertex 45 {m}
  42.5686001842255, -42.5686001842255, 0, !- X,Y,Z Vertex 46 {m}
  39.0212168355401, -39.02121683554, 0,   !- X,Y,Z Vertex 47 {m}
  35.4738334868546, -35.4738334868546, 0, !- X,Y,Z Vertex 48 {m}
  31.9264501381692, -31.9264501381691, 0, !- X,Y,Z Vertex 49 {m}
  28.3790667894837, -28.3790667894836, 0, !- X,Y,Z Vertex 50 {m}
  24.8316834407982, -24.8316834407982, 0, !- X,Y,Z Vertex 51 {m}
  21.2843000921128, -21.2843000921128, 0, !- X,Y,Z Vertex 52 {m}
  17.7369167434273, -17.7369167434273, 0, !- X,Y,Z Vertex 53 {m}
  14.1895333947419, -14.1895333947418, 0, !- X,Y,Z Vertex 54 {m}
  10.6421500460564, -10.6421500460564, 0, !- X,Y,Z Vertex 55 {m}
  7.09476669737089, -7.09476669737092, 0, !- X,Y,Z Vertex 56 {m}
  3.54738334868549, -3.54738334868545, 0; !- X,Y,Z Vertex 57 {m}

OS:Surface,
  {3b44e190-14be-4c91-86e4-7f2021ae1669}, !- Handle
  Surface 2,                              !- Name
  Wall,                                   !- Surface Type
  ,                                       !- Construction Name
  {4060d831-ad54-4ea3-9758-55b399d9141c}, !- Space Name
  Outdoors,                               !- Outside Boundary Condition
  ,                                       !- Outside Boundary Condition Object
  SunExposed,                             !- Sun Exposure
  WindExposed,                            !- Wind Exposure
  ,                                       !- View Factor to Ground
  ,                                       !- Number of Vertices
  3.91151847921499, 3.91151847921497, 1.005, !- X,Y,Z Vertex 1 {m}
  3.91151847921499, 3.91151847921497, 0,  !- X,Y,Z Vertex 2 {m}
  -1.4210854715202e-14, -3.19744231092045e-14, 0, !- X,Y,Z Vertex 3 {m}
  -1.4210854715202e-14, -3.19744231092045e-14, 1.005; !- X,Y,Z Vertex 4 {m}

OS:Surface,
  {e44ee733-4a3c-46d4-b3d8-4c1fd89f784d}, !- Handle
  Surface 3,                              !- Name
  Wall,                                   !- Surface Type
  ,                                       !- Construction Name
  {4060d831-ad54-4ea3-9758-55b399d9141c}, !- Space Name
  Outdoors,                               !- Outside Boundary Condition
  ,                                       !- Outside Boundary Condition Object
  SunExposed,                             !- Sun Exposure
  WindExposed,                            !- Wind Exposure
  ,                                       !- View Factor to Ground
  ,                                       !- Number of Vertices
  7.82303695842999, 7.82303695842997, 1.005, !- X,Y,Z Vertex 1 {m}
  7.82303695842999, 7.82303695842997, 0,  !- X,Y,Z Vertex 2 {m}
  3.91151847921499, 3.91151847921497, 0,  !- X,Y,Z Vertex 3 {m}
  3.91151847921499, 3.91151847921497, 1.005; !- X,Y,Z Vertex 4 {m}

OS:Surface,
  {22c9521b-5865-4920-aeca-6141c46e010d}, !- Handle
  Surface 4,                              !- Name
  Wall,                                   !- Surface Type
  ,                                       !- Construction Name
  {4060d831-ad54-4ea3-9758-55b399d9141c}, !- Space Name
  Outdoors,                               !- Outside Boundary Condition
  ,                                       !- Outside Boundary Condition Object
  SunExposed,                             !- Sun Exposure
  WindExposed,                            !- Wind Exposure
  ,                                       !- View Factor to Ground
  ,                                       !- Number of Vertices
  11.734555437645, 11.734555437645, 1.005, !- X,Y,Z Vertex 1 {m}
  11.734555437645, 11.734555437645, 0,    !- X,Y,Z Vertex 2 {m}
  7.82303695842999, 7.82303695842997, 0,  !- X,Y,Z Vertex 3 {m}
  7.82303695842999, 7.82303695842997, 1.005; !- X,Y,Z Vertex 4 {m}

OS:Surface,
  {2a349cd4-3903-4281-934f-1d2139ad8e6f}, !- Handle
  Surface 5,                              !- Name
  Wall,                                   !- Surface Type
  ,                                       !- Construction Name
  {4060d831-ad54-4ea3-9758-55b399d9141c}, !- Space Name
  Outdoors,                               !- Outside Boundary Condition
  ,                                       !- Outside Boundary Condition Object
  SunExposed,                             !- Sun Exposure
  WindExposed,                            !- Wind Exposure
  ,                                       !- View Factor to Ground
  ,                                       !- Number of Vertices
  15.64607391686, 15.64607391686, 1.005,  !- X,Y,Z Vertex 1 {m}
  15.64607391686, 15.64607391686, 0,      !- X,Y,Z Vertex 2 {m}
  11.734555437645, 11.734555437645, 0,    !- X,Y,Z Vertex 3 {m}
  11.734555437645, 11.734555437645, 1.005; !- X,Y,Z Vertex 4 {m}

OS:Surface,
  {0276a4c1-90cf-4259-ba67-3b1d1421971a}, !- Handle
  Surface 6,                              !- Name
  Wall,                                   !- Surface Type
  ,                                       !- Construction Name
  {4060d831-ad54-4ea3-9758-55b399d9141c}, !- Space Name
  Outdoors,                               !- Outside Boundary Condition
  ,                                       !- Outside Boundary Condition Object
  SunExposed,                             !- Sun Exposure
  WindExposed,                            !- Wind Exposure
  ,                                       !- View Factor to Ground
  ,                                       !- Number of Vertices
  19.2984147665288, 11.9937330671912, 1.005, !- X,Y,Z Vertex 1 {m}
  19.2984147665288, 11.9937330671912, 0,  !- X,Y,Z Vertex 2 {m}
  15.64607391686, 15.64607391686, 0,      !- X,Y,Z Vertex 3 {m}
  15.64607391686, 15.64607391686, 1.005;  !- X,Y,Z Vertex 4 {m}

OS:Surface,
  {2a83956f-93e7-4a1c-b265-c8fe0faee732}, !- Handle
  Surface 7,                              !- Name
  Wall,                                   !- Surface Type
  ,                                       !- Construction Name
  {4060d831-ad54-4ea3-9758-55b399d9141c}, !- Space Name
  Outdoors,                               !- Outside Boundary Condition
  ,                                       !- Outside Boundary Condition Object
  SunExposed,                             !- Sun Exposure
  WindExposed,                            !- Wind Exposure
  ,                                       !- View Factor to Ground
  ,                                       !- Number of Vertices
  22.9507556161976, 8.34139221752247, 1.005, !- X,Y,Z Vertex 1 {m}
  22.9507556161976, 8.34139221752247, 0,  !- X,Y,Z Vertex 2 {m}
  19.2984147665288, 11.9937330671912, 0,  !- X,Y,Z Vertex 3 {m}
  19.2984147665288, 11.9937330671912, 1.005; !- X,Y,Z Vertex 4 {m}

OS:Surface,
  {b2eaa5f9-e36b-4b6e-b736-2ee20506ddcb}, !- Handle
  Surface 8,                              !- Name
  Wall,                                   !- Surface Type
  ,                                       !- Construction Name
  {4060d831-ad54-4ea3-9758-55b399d9141c}, !- Space Name
  Outdoors,                               !- Outside Boundary Condition
  ,                                       !- Outside Boundary Condition Object
  SunExposed,                             !- Sun Exposure
  WindExposed,                            !- Wind Exposure
  ,                                       !- View Factor to Ground
  ,                                       !- Number of Vertices
  26.6030964658664, 4.68905136785367, 1.005, !- X,Y,Z Vertex 1 {m}
  26.6030964658664, 4.68905136785367, 0,  !- X,Y,Z Vertex 2 {m}
  22.9507556161976, 8.34139221752247, 0,  !- X,Y,Z Vertex 3 {m}
  22.9507556161976, 8.34139221752247, 1.005; !- X,Y,Z Vertex 4 {m}

OS:Surface,
  {94db75da-9ced-4496-b2b2-3347df36a30a}, !- Handle
  Surface 9,                              !- Name
  Wall,                                   !- Surface Type
  ,                                       !- Construction Name
  {4060d831-ad54-4ea3-9758-55b399d9141c}, !- Space Name
  Outdoors,                               !- Outside Boundary Condition
  ,                                       !- Outside Boundary Condition Object
  SunExposed,                             !- Sun Exposure
  WindExposed,                            !- Wind Exposure
  ,                                       !- View Factor to Ground
  ,                                       !- Number of Vertices
  30.2554373155352, 1.03671051818487, 1.005, !- X,Y,Z Vertex 1 {m}
  30.2554373155352, 1.03671051818487, 0,  !- X,Y,Z Vertex 2 {m}
  26.6030964658664, 4.68905136785367, 0,  !- X,Y,Z Vertex 3 {m}
  26.6030964658664, 4.68905136785367, 1.005; !- X,Y,Z Vertex 4 {m}

OS:Surface,
  {37e85426-12b1-45e7-8d38-d0170bb36733}, !- Handle
  Surface 10,                             !- Name
  Wall,                                   !- Surface Type
  ,                                       !- Construction Name
  {4060d831-ad54-4ea3-9758-55b399d9141c}, !- Space Name
  Outdoors,                               !- Outside Boundary Condition
  ,                                       !- Outside Boundary Condition Object
  SunExposed,                             !- Sun Exposure
  WindExposed,                            !- Wind Exposure
  ,                                       !- View Factor to Ground
  ,                                       !- Number of Vertices
  33.907778165204, -2.61563033148394, 1.005, !- X,Y,Z Vertex 1 {m}
  33.907778165204, -2.61563033148394, 0,  !- X,Y,Z Vertex 2 {m}
  30.2554373155352, 1.03671051818487, 0,  !- X,Y,Z Vertex 3 {m}
  30.2554373155352, 1.03671051818487, 1.005; !- X,Y,Z Vertex 4 {m}

OS:Surface,
  {7dfef7f0-52bb-4c69-9a25-341d57ecddde}, !- Handle
  Surface 11,                             !- Name
  Wall,                                   !- Surface Type
  ,                                       !- Construction Name
  {4060d831-ad54-4ea3-9758-55b399d9141c}, !- Space Name
  Outdoors,                               !- Outside Boundary Condition
  ,                                       !- Outside Boundary Condition Object
  SunExposed,                             !- Sun Exposure
  WindExposed,                            !- Wind Exposure
  ,                                       !- View Factor to Ground
  ,                                       !- Number of Vertices
  37.5601190148727, -6.26797118115273, 1.005, !- X,Y,Z Vertex 1 {m}
  37.5601190148727, -6.26797118115273, 0, !- X,Y,Z Vertex 2 {m}
  33.907778165204, -2.61563033148394, 0,  !- X,Y,Z Vertex 3 {m}
  33.907778165204, -2.61563033148394, 1.005; !- X,Y,Z Vertex 4 {m}

OS:Surface,
  {0d7451f6-0cab-4af3-ba74-12d1b01610c2}, !- Handle
  Surface 12,                             !- Name
  Wall,                                   !- Surface Type
  ,                                       !- Construction Name
  {4060d831-ad54-4ea3-9758-55b399d9141c}, !- Space Name
  Outdoors,                               !- Outside Boundary Condition
  ,                                       !- Outside Boundary Condition Object
  SunExposed,                             !- Sun Exposure
  WindExposed,                            !- Wind Exposure
  ,                                       !- View Factor to Ground
  ,                                       !- Number of Vertices
  41.2124598645415, -9.92031203082151, 1.005, !- X,Y,Z Vertex 1 {m}
  41.2124598645415, -9.92031203082151, 0, !- X,Y,Z Vertex 2 {m}
  37.5601190148727, -6.26797118115273, 0, !- X,Y,Z Vertex 3 {m}
  37.5601190148727, -6.26797118115273, 1.005; !- X,Y,Z Vertex 4 {m}

OS:Surface,
  {266a13a2-255e-4b9e-b342-6f3984d82ed2}, !- Handle
  Surface 13,                             !- Name
  Wall,                                   !- Surface Type
  ,                                       !- Construction Name
  {4060d831-ad54-4ea3-9758-55b399d9141c}, !- Space Name
  Outdoors,                               !- Outside Boundary Condition
  ,                                       !- Outside Boundary Condition Object
  SunExposed,                             !- Sun Exposure
  WindExposed,                            !- Wind Exposure
  ,                                       !- View Factor to Ground
  ,                                       !- Number of Vertices
  44.8648007142103, -13.5726528804903, 1.005, !- X,Y,Z Vertex 1 {m}
  44.8648007142103, -13.5726528804903, 0, !- X,Y,Z Vertex 2 {m}
  41.2124598645415, -9.92031203082151, 0, !- X,Y,Z Vertex 3 {m}
  41.2124598645415, -9.92031203082151, 1.005; !- X,Y,Z Vertex 4 {m}

OS:Surface,
  {1f84756d-189e-4123-9d42-85325baef588}, !- Handle
  Surface 14,                             !- Name
  Wall,                                   !- Surface Type
  ,                                       !- Construction Name
  {4060d831-ad54-4ea3-9758-55b399d9141c}, !- Space Name
  Outdoors,                               !- Outside Boundary Condition
  ,                                       !- Outside Boundary Condition Object
  SunExposed,                             !- Sun Exposure
  WindExposed,                            !- Wind Exposure
  ,                                       !- View Factor to Ground
  ,                                       !- Number of Vertices
  48.5171415638791, -17.2249937301591, 1.005, !- X,Y,Z Vertex 1 {m}
  48.5171415638791, -17.2249937301591, 0, !- X,Y,Z Vertex 2 {m}
  44.8648007142103, -13.5726528804903, 0, !- X,Y,Z Vertex 3 {m}
  44.8648007142103, -13.5726528804903, 1.005; !- X,Y,Z Vertex 4 {m}

OS:Surface,
  {8585b698-146c-4b17-bdb7-d64bd38ba2ac}, !- Handle
  Surface 15,                             !- Name
  Wall,                                   !- Surface Type
  ,                                       !- Construction Name
  {4060d831-ad54-4ea3-9758-55b399d9141c}, !- Space Name
  Outdoors,                               !- Outside Boundary Condition
  ,                                       !- Outside Boundary Condition Object
  SunExposed,                             !- Sun Exposure
  WindExposed,                            !- Wind Exposure
  ,                                       !- View Factor to Ground
  ,                                       !- Number of Vertices
  52.1694824135479, -20.8773345798279, 1.005, !- X,Y,Z Vertex 1 {m}
  52.1694824135479, -20.8773345798279, 0, !- X,Y,Z Vertex 2 {m}
  48.5171415638791, -17.2249937301591, 0, !- X,Y,Z Vertex 3 {m}
  48.5171415638791, -17.2249937301591, 1.005; !- X,Y,Z Vertex 4 {m}

OS:Surface,
  {11d8a657-643d-4155-bfa1-719b00960903}, !- Handle
  Surface 16,                             !- Name
  Wall,                                   !- Surface Type
  ,                                       !- Construction Name
  {4060d831-ad54-4ea3-9758-55b399d9141c}, !- Space Name
  Outdoors,                               !- Outside Boundary Condition
  ,                                       !- Outside Boundary Condition Object
  SunExposed,                             !- Sun Exposure
  WindExposed,                            !- Wind Exposure
  ,                                       !- View Factor to Ground
  ,                                       !- Number of Vertices
  55.8218232632167, -24.5296754294966, 1.005, !- X,Y,Z Vertex 1 {m}
  55.8218232632167, -24.5296754294966, 0, !- X,Y,Z Vertex 2 {m}
  52.1694824135479, -20.8773345798279, 0, !- X,Y,Z Vertex 3 {m}
  52.1694824135479, -20.8773345798279, 1.005; !- X,Y,Z Vertex 4 {m}

OS:Surface,
  {a3a126aa-bc31-4c54-b428-08b7dbd226dc}, !- Handle
  Surface 17,                             !- Name
  Wall,                                   !- Surface Type
  ,                                       !- Construction Name
  {4060d831-ad54-4ea3-9758-55b399d9141c}, !- Space Name
  Outdoors,                               !- Outside Boundary Condition
  ,                                       !- Outside Boundary Condition Object
  SunExposed,                             !- Sun Exposure
  WindExposed,                            !- Wind Exposure
  ,                                       !- View Factor to Ground
  ,                                       !- Number of Vertices
  59.4741641128855, -28.1820162791654, 1.005, !- X,Y,Z Vertex 1 {m}
  59.4741641128855, -28.1820162791654, 0, !- X,Y,Z Vertex 2 {m}
  55.8218232632167, -24.5296754294966, 0, !- X,Y,Z Vertex 3 {m}
  55.8218232632167, -24.5296754294966, 1.005; !- X,Y,Z Vertex 4 {m}

OS:Surface,
  {fcdf0a17-7429-470e-aea9-15c0a3b5608e}, !- Handle
  Surface 18,                             !- Name
  Wall,                                   !- Surface Type
  ,                                       !- Construction Name
  {4060d831-ad54-4ea3-9758-55b399d9141c}, !- Space Name
  Outdoors,                               !- Outside Boundary Condition
  ,                                       !- Outside Boundary Condition Object
  SunExposed,                             !- Sun Exposure
  WindExposed,                            !- Wind Exposure
  ,                                       !- View Factor to Ground
  ,                                       !- Number of Vertices
  63.0523687757781, -24.6038116162728, 1.005, !- X,Y,Z Vertex 1 {m}
  63.0523687757781, -24.6038116162728, 0, !- X,Y,Z Vertex 2 {m}
  59.4741641128855, -28.1820162791654, 0, !- X,Y,Z Vertex 3 {m}
  59.4741641128855, -28.1820162791654, 1.005; !- X,Y,Z Vertex 4 {m}

OS:Surface,
  {0b6a07f5-089b-4c81-9cba-ef3f5cf743fe}, !- Handle
  Surface 19,                             !- Name
  Wall,                                   !- Surface Type
  ,                                       !- Construction Name
  {4060d831-ad54-4ea3-9758-55b399d9141c}, !- Space Name
  Outdoors,                               !- Outside Boundary Condition
  ,                                       !- Outside Boundary Condition Object
  SunExposed,                             !- Sun Exposure
  WindExposed,                            !- Wind Exposure
  ,                                       !- View Factor to Ground
  ,                                       !- Number of Vertices
  66.6305734386707, -21.0256069533802, 1.005, !- X,Y,Z Vertex 1 {m}
  66.6305734386707, -21.0256069533802, 0, !- X,Y,Z Vertex 2 {m}
  63.0523687757781, -24.6038116162728, 0, !- X,Y,Z Vertex 3 {m}
  63.0523687757781, -24.6038116162728, 1.005; !- X,Y,Z Vertex 4 {m}

OS:Surface,
  {0a41abeb-e012-4942-a35c-d901aa6edeb3}, !- Handle
  Surface 20,                             !- Name
  Wall,                                   !- Surface Type
  ,                                       !- Construction Name
  {4060d831-ad54-4ea3-9758-55b399d9141c}, !- Space Name
  Outdoors,                               !- Outside Boundary Condition
  ,                                       !- Outside Boundary Condition Object
  SunExposed,                             !- Sun Exposure
  WindExposed,                            !- Wind Exposure
  ,                                       !- View Factor to Ground
  ,                                       !- Number of Vertices
  70.2087781015634, -17.4474022904876, 1.005, !- X,Y,Z Vertex 1 {m}
  70.2087781015634, -17.4474022904876, 0, !- X,Y,Z Vertex 2 {m}
  66.6305734386707, -21.0256069533802, 0, !- X,Y,Z Vertex 3 {m}
  66.6305734386707, -21.0256069533802, 1.005; !- X,Y,Z Vertex 4 {m}

OS:Surface,
  {918617af-ebc5-4a5a-8fa8-258f553488b3}, !- Handle
  Surface 21,                             !- Name
  Wall,                                   !- Surface Type
  ,                                       !- Construction Name
  {4060d831-ad54-4ea3-9758-55b399d9141c}, !- Space Name
  Outdoors,                               !- Outside Boundary Condition
  ,                                       !- Outside Boundary Condition Object
  SunExposed,                             !- Sun Exposure
  WindExposed,                            !- Wind Exposure
  ,                                       !- View Factor to Ground
  ,                                       !- Number of Vertices
  73.786982764456, -13.8691976275949, 1.005, !- X,Y,Z Vertex 1 {m}
  73.786982764456, -13.8691976275949, 0,  !- X,Y,Z Vertex 2 {m}
  70.2087781015634, -17.4474022904876, 0, !- X,Y,Z Vertex 3 {m}
  70.2087781015634, -17.4474022904876, 1.005; !- X,Y,Z Vertex 4 {m}

OS:Surface,
  {4eb39e7d-fbf5-42c4-8b7b-58f82d244c76}, !- Handle
  Surface 22,                             !- Name
  Wall,                                   !- Surface Type
  ,                                       !- Construction Name
  {4060d831-ad54-4ea3-9758-55b399d9141c}, !- Space Name
  Outdoors,                               !- Outside Boundary Condition
  ,                                       !- Outside Boundary Condition Object
  SunExposed,                             !- Sun Exposure
  WindExposed,                            !- Wind Exposure
  ,                                       !- View Factor to Ground
  ,                                       !- Number of Vertices
  77.3651874273486, -10.2909929647023, 1.005, !- X,Y,Z Vertex 1 {m}
  77.3651874273486, -10.2909929647023, 0, !- X,Y,Z Vertex 2 {m}
  73.786982764456, -13.8691976275949, 0,  !- X,Y,Z Vertex 3 {m}
  73.786982764456, -13.8691976275949, 1.005; !- X,Y,Z Vertex 4 {m}

OS:Surface,
  {5e914968-48c1-4fb8-a69f-0734c406b9a8}, !- Handle
  Surface 23,                             !- Name
  Wall,                                   !- Surface Type
  ,                                       !- Construction Name
  {4060d831-ad54-4ea3-9758-55b399d9141c}, !- Space Name
  Outdoors,                               !- Outside Boundary Condition
  ,                                       !- Outside Boundary Condition Object
  SunExposed,                             !- Sun Exposure
  WindExposed,                            !- Wind Exposure
  ,                                       !- View Factor to Ground
  ,                                       !- Number of Vertices
  80.9433920902412, -6.71278830180967, 1.005, !- X,Y,Z Vertex 1 {m}
  80.9433920902412, -6.71278830180967, 0, !- X,Y,Z Vertex 2 {m}
  77.3651874273486, -10.2909929647023, 0, !- X,Y,Z Vertex 3 {m}
  77.3651874273486, -10.2909929647023, 1.005; !- X,Y,Z Vertex 4 {m}

OS:Surface,
  {625efef7-dd76-4a3f-8dcc-49316aee926a}, !- Handle
  Surface 24,                             !- Name
  Wall,                                   !- Surface Type
  ,                                       !- Construction Name
  {4060d831-ad54-4ea3-9758-55b399d9141c}, !- Space Name
  Outdoors,                               !- Outside Boundary Condition
  ,                                       !- Outside Boundary Condition Object
  SunExposed,                             !- Sun Exposure
  WindExposed,                            !- Wind Exposure
  ,                                       !- View Factor to Ground
  ,                                       !- Number of Vertices
  84.5215967531339, -3.13458363891704, 1.005, !- X,Y,Z Vertex 1 {m}
  84.5215967531339, -3.13458363891704, 0, !- X,Y,Z Vertex 2 {m}
  80.9433920902412, -6.71278830180967, 0, !- X,Y,Z Vertex 3 {m}
  80.9433920902412, -6.71278830180967, 1.005; !- X,Y,Z Vertex 4 {m}

OS:Surface,
  {07e60399-2aee-4f7f-b3a4-9d99ece11b74}, !- Handle
  Surface 25,                             !- Name
  Wall,                                   !- Surface Type
  ,                                       !- Construction Name
  {4060d831-ad54-4ea3-9758-55b399d9141c}, !- Space Name
  Outdoors,                               !- Outside Boundary Condition
  ,                                       !- Outside Boundary Condition Object
  SunExposed,                             !- Sun Exposure
  WindExposed,                            !- Wind Exposure
  ,                                       !- View Factor to Ground
  ,                                       !- Number of Vertices
  88.0998014160265, 0.443621023975567, 1.005, !- X,Y,Z Vertex 1 {m}
  88.0998014160265, 0.443621023975567, 0, !- X,Y,Z Vertex 2 {m}
  84.5215967531339, -3.13458363891704, 0, !- X,Y,Z Vertex 3 {m}
  84.5215967531339, -3.13458363891704, 1.005; !- X,Y,Z Vertex 4 {m}

OS:Surface,
  {2ff603cc-87d2-4d53-80e3-681baea32ee7}, !- Handle
  Surface 26,                             !- Name
  Wall,                                   !- Surface Type
  ,                                       !- Construction Name
  {4060d831-ad54-4ea3-9758-55b399d9141c}, !- Space Name
  Outdoors,                               !- Outside Boundary Condition
  ,                                       !- Outside Boundary Condition Object
  SunExposed,                             !- Sun Exposure
  WindExposed,                            !- Wind Exposure
  ,                                       !- View Factor to Ground
  ,                                       !- Number of Vertices
  91.6780060789191, 4.02182568686817, 1.005, !- X,Y,Z Vertex 1 {m}
  91.6780060789191, 4.02182568686817, 0,  !- X,Y,Z Vertex 2 {m}
  88.0998014160265, 0.443621023975567, 0, !- X,Y,Z Vertex 3 {m}
  88.0998014160265, 0.443621023975567, 1.005; !- X,Y,Z Vertex 4 {m}

OS:Surface,
  {7d43d032-c27f-49cb-be67-1aa4fcecd49a}, !- Handle
  Surface 27,                             !- Name
  Wall,                                   !- Surface Type
  ,                                       !- Construction Name
  {4060d831-ad54-4ea3-9758-55b399d9141c}, !- Space Name
  Outdoors,                               !- Outside Boundary Condition