
OS:Version,
  {7c15f9a1-c809-48f7-99d0-3395016c4b98}, !- Handle
  1.7.0;                                  !- Version Identifier

OS:BuildingStory,
  {1cca608c-801a-4d6e-ba1e-56cc20e5916b}, !- Handle
  Story 1,                                !- Name
  0,                                      !- Nominal Z Coordinate {m}
  1.005,                                  !- Nominal Floor to Floor Height {m}
  ,                                       !- Default Construction Set Name
  ,                                       !- Default Schedule Set Name
  {a150b1a8-96e8-4ae3-8451-82a6515b6836}; !- Group Rendering Name

OS:Space,
  {e064b11c-ceab-429d-998a-f1da48b10a8d}, !- Handle
  0 Core Space,                           !- Name
  ,                                       !- Space Type Name
  ,                                       !- Default Construction Set Name
  ,                                       !- Default Schedule Set Name
  -0,                                     !- Direction of Relative North {deg}
  -55.0553339831846,                      !- X Origin {m}
  11.667261889578,                        !- Y Origin {m}
  0,                                      !- Z Origin {m}
  {1cca608c-801a-4d6e-ba1e-56cc20e5916b}, !- Building Story Name
  {6f97bfc3-b24a-454c-a628-fdab808d4ea5}; !- Thermal Zone Name

OS:Surface,
  {d9870f68-ac4c-44c5-82ac-2e4e14047952}, !- Handle
  Surface 1,                              !- Name
  Floor,                                  !- Surface Type
  ,                                       !- Construction Name
  {e064b11c-ceab-429d-998a-f1da48b10a8d}, !- Space Name
  Ground,                                 !- Outside Boundary Condition
  ,                                       !- Outside Boundary Condition Object
  NoSun,                                  !- Sun Exposure
  NoWind,                                 !- Wind Exposure
  ,                                       !- View Factor to Ground
  ,                                       !- Number of Vertices
  15.64607391686, 15.64607391686, 0,      !- X,Y,Z Vertex 1 {m}
  59.4741641128855, -28.1820162791654, 0, !- X,Y,Z Vertex 2 {m}
  91.6780060789191, 4.02182568686817, 0,  !- X,Y,Z Vertex 3 {m}
  104.608049461861, -8.90821769607368, 0, !- X,Y,Z Vertex 4 {m}
  56.7581335789674, -56.7581335789673, 0, !- X,Y,Z Vertex 5 {m}
  -1.4210854715202e-14, -3.19744231092045e-14, 0; !- X,Y,Z Vertex 6 {m}

OS:Surface,
  {dc34fb71-17ed-4b20-9beb-83527f1d29d6}, !- Handle
  Surface 2,                              !- Name
  Wall,                                   !- Surface Type
  ,                                       !- Construction Name
  {e064b11c-ceab-429d-998a-f1da48b10a8d}, !- Space Name
  Outdoors,                               !- Outside Boundary Condition
  ,                                       !- Outside Boundary Condition Object
  SunExposed,                             !- Sun Exposure
  WindExposed,                            !- Wind Exposure
  ,                                       !- View Factor to Ground
  ,                                       !- Number of Vertices
  3.91151847921499, 3.91151847921497, 1.005, !- X,Y,Z Vertex 1 {m}
  3.91151847921499, 3.91151847921497, 0,  !- X,Y,Z Vertex 2 {m}
  -1.3978963004393e-14, -3.22063148200135e-14, 0, !- X,Y,Z Vertex 3 {m}
  -1.3978963004393e-14, -3.22063148200135e-14, 1.005; !- X,Y,Z Vertex 4 {m}

OS:Surface,
  {6f40ef50-e57c-43f4-a598-fa175851f42f}, !- Handle
  Surface 3,                              !- Name
  Wall,                                   !- Surface Type
  ,                                       !- Construction Name
  {e064b11c-ceab-429d-998a-f1da48b10a8d}, !- Space Name
  Outdoors,                               !- Outside Boundary Condition
  ,                                       !- Outside Boundary Condition Object
  SunExposed,                             !- Sun Exposure
  WindExposed,                            !- Wind Exposure
  ,                                       !- View Factor to Ground
  ,                                       !- Number of Vertices
  7.82303695842999, 7.82303695842997, 1.005, !- X,Y,Z Vertex 1 {m}
  7.82303695842999, 7.82303695842997, 0,  !- X,Y,Z Vertex 2 {m}
  3.91151847921499, 3.91151847921497, 0,  !- X,Y,Z Vertex 3 {m}
  3.91151847921499, 3.91151847921497, 1.005; !- X,Y,Z Vertex 4 {m}

OS:Surface,
  {29ff6fef-08ee-44a9-8ba1-81d543e5c616}, !- Handle
  Surface 4,                              !- Name
  Wall,                                   !- Surface Type
  ,                                       !- Construction Name
  {e064b11c-ceab-429d-998a-f1da48b10a8d}, !- Space Name
  Outdoors,                               !- Outside Boundary Condition
  ,                                       !- Outside Boundary Condition Object
  SunExposed,                             !- Sun Exposure
  WindExposed,                            !- Wind Exposure
  ,                                       !- View Factor to Ground
  ,                                       !- Number of Vertices
  11.734555437645, 11.734555437645, 1.005, !- X,Y,Z Vertex 1 {m}
  11.734555437645, 11.734555437645, 0,    !- X,Y,Z Vertex 2 {m}
  7.82303695842999, 7.82303695842997, 0,  !- X,Y,Z Vertex 3 {m}
  7.82303695842999, 7.82303695842997, 1.005; !- X,Y,Z Vertex 4 {m}

OS:Surface,
  {8cd53d29-9cc0-441e-81c1-6fcfce282422}, !- Handle
  Surface 5,                              !- Name
  Wall,                                   !- Surface Type
  ,                                       !- Construction Name
  {e064b11c-ceab-429d-998a-f1da48b10a8d}, !- Space Name
  Outdoors,                               !- Outside Boundary Condition
  ,                                       !- Outside Boundary Condition Object
  SunExposed,                             !- Sun Exposure
  WindExposed,                            !- Wind Exposure
  ,                                       !- View Factor to Ground
  ,                                       !- Number of Vertices
  15.64607391686, 15.64607391686, 1.005,  !- X,Y,Z Vertex 1 {m}
  15.64607391686, 15.64607391686, 0,      !- X,Y,Z Vertex 2 {m}
  11.734555437645, 11.734555437645, 0,    !- X,Y,Z Vertex 3 {m}
  11.734555437645, 11.734555437645, 1.005; !- X,Y,Z Vertex 4 {m}

OS:Surface,
  {a6039a84-eeb6-44c7-95fd-624dc47194c2}, !- Handle
  Surface 6,                              !- Name
  Wall,                                   !- Surface Type
  ,                                       !- Construction Name
  {e064b11c-ceab-429d-998a-f1da48b10a8d}, !- Space Name
  Outdoors,                               !- Outside Boundary Condition
  ,                                       !- Outside Boundary Condition Object
  SunExposed,                             !- Sun Exposure
  WindExposed,                            !- Wind Exposure
  ,                                       !- View Factor to Ground
  ,                                       !- Number of Vertices
  19.2984147665288, 11.9937330671912, 1.005, !- X,Y,Z Vertex 1 {m}
  19.2984147665288, 11.9937330671912, 0,  !- X,Y,Z Vertex 2 {m}
  15.64607391686, 15.64607391686, 0,      !- X,Y,Z Vertex 3 {m}
  15.64607391686, 15.64607391686, 1.005;  !- X,Y,Z Vertex 4 {m}

OS:Surface,
  {08d0a001-52fe-45ef-82ee-264279afdfb5}, !- Handle
  Surface 7,                              !- Name
  Wall,                                   !- Surface Type
  ,                                       !- Construction Name
  {e064b11c-ceab-429d-998a-f1da48b10a8d}, !- Space Name
  Outdoors,                               !- Outside Boundary Condition
  ,                                       !- Outside Boundary Condition Object
  SunExposed,                             !- Sun Exposure
  WindExposed,                            !- Wind Exposure
  ,                                       !- View Factor to Ground
  ,                                       !- Number of Vertices
  22.9507556161976, 8.34139221752247, 1.005, !- X,Y,Z Vertex 1 {m}
  22.9507556161976, 8.34139221752247, 0,  !- X,Y,Z Vertex 2 {m}
  19.2984147665288, 11.9937330671912, 0,  !- X,Y,Z Vertex 3 {m}
  19.2984147665288, 11.9937330671912, 1.005; !- X,Y,Z Vertex 4 {m}

OS:Surface,
  {59a2ad90-569a-4a28-a632-33e8d6ed7db0}, !- Handle
  Surface 8,                              !- Name
  Wall,                                   !- Surface Type
  ,                                       !- Construction Name
  {e064b11c-ceab-429d-998a-f1da48b10a8d}, !- Space Name
  Outdoors,                               !- Outside Boundary Condition
  ,                                       !- Outside Boundary Condition Object
  SunExposed,                             !- Sun Exposure
  WindExposed,                            !- Wind Exposure
  ,                                       !- View Factor to Ground
  ,                                       !- Number of Vertices
  26.6030964658664, 4.68905136785367, 1.005, !- X,Y,Z Vertex 1 {m}
  26.6030964658664, 4.68905136785367, 0,  !- X,Y,Z Vertex 2 {m}
  22.9507556161976, 8.34139221752247, 0,  !- X,Y,Z Vertex 3 {m}
  22.9507556161976, 8.34139221752247, 1.005; !- X,Y,Z Vertex 4 {m}

OS:Surface,
  {1967471f-3c4f-4f4b-8f33-8c74216a7f15}, !- Handle
  Surface 9,                              !- Name
  Wall,                                   !- Surface Type
  ,                                       !- Construction Name
  {e064b11c-ceab-429d-998a-f1da48b10a8d}, !- Space Name
  Outdoors,                               !- Outside Boundary Condition
  ,                                       !- Outside Boundary Condition Object
  SunExposed,                             !- Sun Exposure
  WindExposed,                            !- Wind Exposure
  ,                                       !- View Factor to Ground
  ,                                       !- Number of Vertices
  30.2554373155352, 1.03671051818487, 1.005, !- X,Y,Z Vertex 1 {m}
  30.2554373155352, 1.03671051818487, 0,  !- X,Y,Z Vertex 2 {m}
  26.6030964658664, 4.68905136785367, 0,  !- X,Y,Z Vertex 3 {m}
  26.6030964658664, 4.68905136785367, 1.005; !- X,Y,Z Vertex 4 {m}

OS:Surface,
  {0f296fcc-6f55-4d27-9a75-c4b7aaa2fd79}, !- Handle
  Surface 10,                             !- Name
  Wall,                                   !- Surface Type
  ,                                       !- Construction Name
  {e064b11c-ceab-429d-998a-f1da48b10a8d}, !- Space Name
  Outdoors,                               !- Outside Boundary Condition
  ,                                       !- Outside Boundary Condition Object
  SunExposed,                             !- Sun Exposure
  WindExposed,                            !- Wind Exposure
  ,                                       !- View Factor to Ground
  ,                                       !- Number of Vertices
  33.907778165204, -2.61563033148394, 1.005, !- X,Y,Z Vertex 1 {m}
  33.907778165204, -2.61563033148394, 0,  !- X,Y,Z Vertex 2 {m}
  30.2554373155352, 1.03671051818487, 0,  !- X,Y,Z Vertex 3 {m}
  30.2554373155352, 1.03671051818487, 1.005; !- X,Y,Z Vertex 4 {m}

OS:Surface,
  {1bdeb86a-0e93-4d77-bbd4-0950ab5e7be6}, !- Handle
  Surface 11,                             !- Name
  Wall,                                   !- Surface Type
  ,                                       !- Construction Name
  {e064b11c-ceab-429d-998a-f1da48b10a8d}, !- Space Name
  Outdoors,                               !- Outside Boundary Condition
  ,                                       !- Outside Boundary Condition Object
  SunExposed,                             !- Sun Exposure
  WindExposed,                            !- Wind Exposure
  ,                                       !- View Factor to Ground
  ,                                       !- Number of Vertices
  37.5601190148727, -6.26797118115273, 1.005, !- X,Y,Z Vertex 1 {m}
  37.5601190148727, -6.26797118115273, 0, !- X,Y,Z Vertex 2 {m}
  33.907778165204, -2.61563033148394, 0,  !- X,Y,Z Vertex 3 {m}
  33.907778165204, -2.61563033148394, 1.005; !- X,Y,Z Vertex 4 {m}

OS:Surface,
  {d6cc5242-b849-4f63-80a0-60cd46aedb6f}, !- Handle
  Surface 12,                             !- Name
  Wall,                                   !- Surface Type
  ,                                       !- Construction Name
  {e064b11c-ceab-429d-998a-f1da48b10a8d}, !- Space Name
  Outdoors,                               !- Outside Boundary Condition
  ,                                       !- Outside Boundary Condition Object
  SunExposed,                             !- Sun Exposure
  WindExposed,                            !- Wind Exposure
  ,                                       !- View Factor to Ground
  ,                                       !- Number of Vertices
  41.2124598645415, -9.92031203082151, 1.005, !- X,Y,Z Vertex 1 {m}
  41.2124598645415, -9.92031203082151, 0, !- X,Y,Z Vertex 2 {m}
  37.5601190148727, -6.26797118115273, 0, !- X,Y,Z Vertex 3 {m}
  37.5601190148727, -6.26797118115273, 1.005; !- X,Y,Z Vertex 4 {m}

OS:Surface,
  {6eb2c13c-a888-44ae-8aa6-5dbba34ada19}, !- Handle
  Surface 13,                             !- Name
  Wall,                                   !- Surface Type
  ,                                       !- Construction Name
  {e064b11c-ceab-429d-998a-f1da48b10a8d}, !- Space Name
  Outdoors,                               !- Outside Boundary Condition
  ,                                       !- Outside Boundary Condition Object
  SunExposed,                             !- Sun Exposure
  WindExposed,                            !- Wind Exposure
  ,                                       !- View Factor to Ground
  ,                                       !- Number of Vertices
  44.8648007142103, -13.5726528804903, 1.005, !- X,Y,Z Vertex 1 {m}
  44.8648007142103, -13.5726528804903, 0, !- X,Y,Z Vertex 2 {m}
  41.2124598645415, -9.92031203082151, 0, !- X,Y,Z Vertex 3 {m}
  41.2124598645415, -9.92031203082151, 1.005; !- X,Y,Z Vertex 4 {m}

OS:Surface,
  {4971d239-7fb6-4354-a130-dcb3fe5e590d}, !- Handle
  Surface 14,                             !- Name
  Wall,                                   !- Surface Type
  ,                                       !- Construction Name
  {e064b11c-ceab-429d-998a-f1da48b10a8d}, !- Space Name
  Outdoors,                               !- Outside Boundary Condition
  ,                                       !- Outside Boundary Condition Object
  SunExposed,                             !- Sun Exposure
  WindExposed,                            !- Wind Exposure
  ,                                       !- View Factor to Ground
  ,                                       !- Number of Vertices
  48.5171415638791, -17.2249937301591, 1.005, !- X,Y,Z Vertex 1 {m}
  48.5171415638791, -17.2249937301591, 0, !- X,Y,Z Vertex 2 {m}
  44.8648007142103, -13.5726528804903, 0, !- X,Y,Z Vertex 3 {m}
  44.8648007142103, -13.5726528804903, 1.005; !- X,Y,Z Vertex 4 {m}

OS:Surface,
  {eda264df-612d-49b4-9120-ed3a3dbc87ed}, !- Handle
  Surface 15,                             !- Name
  Wall,                                   !- Surface Type
  ,                                       !- Construction Name
  {e064b11c-ceab-429d-998a-f1da48b10a8d}, !- Space Name
  Outdoors,                               !- Outside Boundary Condition
  ,                                       !- Outside Boundary Condition Object
  SunExposed,                             !- Sun Exposure
  WindExposed,                            !- Wind Exposure
  ,                                       !- View Factor to Ground
  ,                                       !- Number of Vertices
  52.1694824135479, -20.8773345798279, 1.005, !- X,Y,Z Vertex 1 {m}
  52.1694824135479, -20.8773345798279, 0, !- X,Y,Z Vertex 2 {m}
  48.5171415638791, -17.2249937301591, 0, !- X,Y,Z Vertex 3 {m}
  48.5171415638791, -17.2249937301591, 1.005; !- X,Y,Z Vertex 4 {m}

OS:Surface,
  {43fef2bb-3764-4d23-8c4a-8b975bdd1045}, !- Handle
  Surface 16,                             !- Name
  Wall,                                   !- Surface Type
  ,                                       !- Construction Name
  {e064b11c-ceab-429d-998a-f1da48b10a8d}, !- Space Name
  Outdoors,                               !- Outside Boundary Condition
  ,                                       !- Outside Boundary Condition Object
  SunExposed,                             !- Sun Exposure
  WindExposed,                            !- Wind Exposure
  ,                                       !- View Factor to Ground
  ,                                       !- Number of Vertices
  55.8218232632167, -24.5296754294966, 1.005, !- X,Y,Z Vertex 1 {m}
  55.8218232632167, -24.5296754294966, 0, !- X,Y,Z Vertex 2 {m}
  52.1694824135479, -20.8773345798279, 0, !- X,Y,Z Vertex 3 {m}
  52.1694824135479, -20.8773345798279, 1.005; !- X,Y,Z Vertex 4 {m}

OS:Surface,
  {5a8bb0f1-2b4c-488e-89cb-225ff4d1343c}, !- Handle
  Surface 17,                             !- Name
  Wall,                                   !- Surface Type
  ,                                       !- Construction Name
  {e064b11c-ceab-429d-998a-f1da48b10a8d}, !- Space Name
  Outdoors,                               !- Outside Boundary Condition
  ,                                       !- Outside Boundary Condition Object
  SunExposed,                             !- Sun Exposure
  WindExposed,                            !- Wind Exposure
  ,                                       !- View Factor to Ground
  ,                                       !- Number of Vertices
  59.4741641128855, -28.1820162791654, 1.005, !- X,Y,Z Vertex 1 {m}
  59.4741641128855, -28.1820162791654, 0, !- X,Y,Z Vertex 2 {m}
  55.8218232632167, -24.5296754294966, 0, !- X,Y,Z Vertex 3 {m}
  55.8218232632167, -24.5296754294966, 1.005; !- X,Y,Z Vertex 4 {m}

OS:Surface,
  {09e07f40-dcdb-4f1a-a12e-942f6a85edf0}, !- Handle
  Surface 18,                             !- Name
  Wall,                                   !- Surface Type
  ,                                       !- Construction Name
  {e064b11c-ceab-429d-998a-f1da48b10a8d}, !- Space Name
  Outdoors,                               !- Outside Boundary Condition
  ,                                       !- Outside Boundary Condition Object
  SunExposed,                             !- Sun Exposure
  WindExposed,                            !- Wind Exposure
  ,                                       !- View Factor to Ground
  ,                                       !- Number of Vertices
  63.0523687757781, -24.6038116162728, 1.005, !- X,Y,Z Vertex 1 {m}
  63.0523687757781, -24.6038116162728, 0, !- X,Y,Z Vertex 2 {m}
  59.4741641128855, -28.1820162791654, 0, !- X,Y,Z Vertex 3 {m}
  59.4741641128855, -28.1820162791654, 1.005; !- X,Y,Z Vertex 4 {m}

OS:Surface,
  {e8f4494b-6eb6-4bbe-b91b-1f589f3f2f5c}, !- Handle
  Surface 19,                             !- Name
  Wall,                                   !- Surface Type
  ,                                       !- Construction Name
  {e064b11c-ceab-429d-998a-f1da48b10a8d}, !- Space Name
  Outdoors,                               !- Outside Boundary Condition
  ,                                       !- Outside Boundary Condition Object
  SunExposed,                             !- Sun Exposure
  WindExposed,                            !- Wind Exposure
  ,                                       !- View Factor to Ground
  ,                                       !- Number of Vertices
  66.6305734386707, -21.0256069533802, 1.005, !- X,Y,Z Vertex 1 {m}
  66.6305734386707, -21.0256069533802, 0, !- X,Y,Z Vertex 2 {m}
  63.0523687757781, -24.6038116162728, 0, !- X,Y,Z Vertex 3 {m}
  63.0523687757781, -24.6038116162728, 1.005; !- X,Y,Z Vertex 4 {m}

OS:Surface,
  {bb54f1f8-fb9d-4d02-a31e-a25e18d0856d}, !- Handle
  Surface 20,                             !- Name
  Wall,                                   !- Surface Type
  ,                                       !- Construction Name
  {e064b11c-ceab-429d-998a-f1da48b10a8d}, !- Space Name
  Outdoors,                               !- Outside Boundary Condition
  ,                                       !- Outside Boundary Condition Object
  SunExposed,                             !- Sun Exposure
  WindExposed,                            !- Wind Exposure
  ,                                       !- View Factor to Ground
  ,                                       !- Number of Vertices
  70.2087781015634, -17.4474022904876, 1.005, !- X,Y,Z Vertex 1 {m}
  70.2087781015634, -17.4474022904876, 0, !- X,Y,Z Vertex 2 {m}
  66.6305734386707, -21.0256069533802, 0, !- X,Y,Z Vertex 3 {m}
  66.6305734386707, -21.0256069533802, 1.005; !- X,Y,Z Vertex 4 {m}

OS:Surface,
  {6882bdbe-656d-4041-8245-f34ef589c388}, !- Handle
  Surface 21,                             !- Name
  Wall,                                   !- Surface Type
  ,                                       !- Construction Name
  {e064b11c-ceab-429d-998a-f1da48b10a8d}, !- Space Name
  Outdoors,                               !- Outside Boundary Condition
  ,                                       !- Outside Boundary Condition Object
  SunExposed,                             !- Sun Exposure
  WindExposed,                            !- Wind Exposure
  ,                                       !- View Factor to Ground
  ,                                       !- Number of Vertices
  73.786982764456, -13.8691976275949, 1.005, !- X,Y,Z Vertex 1 {m}
  73.786982764456, -13.8691976275949, 0,  !- X,Y,Z Vertex 2 {m}
  70.2087781015634, -17.4474022904876, 0, !- X,Y,Z Vertex 3 {m}
  70.2087781015634, -17.4474022904876, 1.005; !- X,Y,Z Vertex 4 {m}

OS:Surface,
  {a744323d-7bb3-42a4-ac71-4f3df480e980}, !- Handle
  Surface 22,                             !- Name
  Wall,                                   !- Surface Type
  ,                                       !- Construction Name
  {e064b11c-ceab-429d-998a-f1da48b10a8d}, !- Space Name
  Outdoors,                               !- Outside Boundary Condition
  ,                                       !- Outside Boundary Condition Object
  SunExposed,                             !- Sun Exposure
  WindExposed,                            !- Wind Exposure
  ,                                       !- View Factor to Ground
  ,                                       !- Number of Vertices
  77.3651874273486, -10.2909929647023, 1.005, !- X,Y,Z Vertex 1 {m}
  77.3651874273486, -10.2909929647023, 0, !- X,Y,Z Vertex 2 {m}
  73.786982764456, -13.8691976275949, 0,  !- X,Y,Z Vertex 3 {m}
  73.786982764456, -13.8691976275949, 1.005; !- X,Y,Z Vertex 4 {m}

OS:Surface,
  {723783cc-bcb4-4e39-a506-c9cf4e60ae8f}, !- Handle
  Surface 23,                             !- Name
  Wall,                                   !- Surface Type
  ,                                       !- Construction Name
  {e064b11c-ceab-429d-998a-f1da48b10a8d}, !- Space Name
  Outdoors,                               !- Outside Boundary Condition
  ,                                       !- Outside Boundary Condition Object
  SunExposed,                             !- Sun Exposure
  WindExposed,                            !- Wind Exposure
  ,                                       !- View Factor to Ground
  ,                                       !- Number of Vertices
  80.9433920902412, -6.71278830180967, 1.005, !- X,Y,Z Vertex 1 {m}
  80.9433920902412, -6.71278830180967, 0, !- X,Y,Z Vertex 2 {m}
  77.3651874273486, -10.2909929647023, 0, !- X,Y,Z Vertex 3 {m}
  77.3651874273486, -10.2909929647023, 1.005; !- X,Y,Z Vertex 4 {m}

OS:Surface,
  {17f4922f-c4e7-434d-885d-2266ef7b194d}, !- Handle
  Surface 24,                             !- Name
  Wall,                                   !- Surface Type
  ,                                       !- Construction Name
  {e064b11c-ceab-429d-998a-f1da48b10a8d}, !- Space Name
  Outdoors,                               !- Outside Boundary Condition
  ,                                       !- Outside Boundary Condition Object
  SunExposed,                             !- Sun Exposure
  WindExposed,                            !- Wind Exposure
  ,                                       !- View Factor to Ground
  ,                                       !- Number of Vertices
  84.5215967531339, -3.13458363891704, 1.005, !- X,Y,Z Vertex 1 {m}
  84.5215967531339, -3.13458363891704, 0, !- X,Y,Z Vertex 2 {m}
  80.9433920902412, -6.71278830180967, 0, !- X,Y,Z Vertex 3 {m}
  80.9433920902412, -6.71278830180967, 1.005; !- X,Y,Z Vertex 4 {m}

OS:Surface,
  {cfcb6b08-feb1-4ed0-b3d3-7bf3b59dcfba}, !- Handle
  Surface 25,                             !- Name
  Wall,                                   !- Surface Type
  ,                                       !- Construction Name
  {e064b11c-ceab-429d-998a-f1da48b10a8d}, !- Space Name
  Outdoors,                               !- Outside Boundary Condition
  ,                                       !- Outside Boundary Condition Object
  SunExposed,                             !- Sun Exposure
  WindExposed,                            !- Wind Exposure
  ,                                       !- View Factor to Ground
  ,                                       !- Number of Vertices
  88.0998014160265, 0.443621023975567, 1.005, !- X,Y,Z Vertex 1 {m}
  88.0998014160265, 0.443621023975567, 0, !- X,Y,Z Vertex 2 {m}
  84.5215967531339, -3.13458363891703, 0, !- X,Y,Z Vertex 3 {m}
  84.5215967531339, -3.13458363891703, 1.005; !- X,Y,Z Vertex 4 {m}

OS:Surface,
  {73e6ae9e-effa-4067-beaa-c9533503af0e}, !- Handle
  Surface 26,                             !- Name
  Wall,                                   !- Surface Type
  ,                                       !- Construction Name
  {e064b11c-ceab-429d-998a-f1da48b10a8d}, !- Space Name
  Outdoors,                               !- Outside Boundary Condition
  ,                                       !- Outside Boundary Condition Object
  SunExposed,                             !- Sun Exposure
  WindExposed,                            !- Wind Exposure
  ,                                       !- View Factor to Ground
  ,                                       !- Number of Vertices
  91.6780060789191, 4.02182568686817, 1.005, !- X,Y,Z Vertex 1 {m}
  91.6780060789191, 4.02182568686817, 0,  !- X,Y,Z Vertex 2 {m}
  88.0998014160265, 0.443621023975567, 0, !- X,Y,Z Vertex 3 {m}
  88.0998014160265, 0.443621023975567, 1.005; !- X,Y,Z Vertex 4 {m}

OS:Surface,
  {5cc29647-c421-4e13-abca-f5cca8ce8d97}, !- Handle
  Surface 27,                             !- Name
  Wall,                                   !- Surface Type
  ,                                       !- Construction Name
  {e064b11c-ceab-429d-998a-f1da48b10a8d}, !- Space Name
  Outdoors,                               !- Outside Boundary Condition
  ,                                       !- Outside Boundary Condition Object
  SunExposed,                             !- Sun Exposure
  WindExposed,                            !- Wind Exposure
  ,                                       !- View Factor to Ground
  ,                                       !- Number of Vertices
  95.9880205398998, -0.288188774112433, 1.005, !- X,Y,Z Vertex 1 {m}
  95.9880205398998, -0.288188774112433, 0, !- X,Y,Z Vertex 2 {m}
  91.6780060789191, 4.02182568686817, 0,  !- X,Y,Z Vertex 3 {m}
  91.6780060789191, 4.02182568686817, 1.005; !- X,Y,Z Vertex 4 {m}

OS:Surface,
  {af762ede-8791-452d-9bf8-926546afbbe7}, !- Handle
  Surface 28,                             !- Name
  Wall,                                   !- Surface Type
  ,                                       !- Construction Name
  {e064b11c-ceab-429d-998a-f1da48b10a8d}, !- Space Name
  Outdoors,                               !- Outside Boundary Condition
  ,                                       !- Outside Boundary Condition Object
  SunExposed,                             !- Sun Exposure
  WindExposed,                            !- Wind Exposure
  ,                                       !- View Factor to Ground
  ,                                       !- Number of Vertices
  100.29803500088, -4.59820323509305, 1.005, !- X,Y,Z Vertex 1 {m}
  100.29803500088, -4.59820323509305, 0,  !- X,Y,Z Vertex 2 {m}
  95.9880205398998, -0.288188774112425, 0, !- X,Y,Z Vertex 3 {m}
  95.9880205398998, -0.288188774112425, 1.005; !- X,Y,Z Vertex 4 {m}

OS:Surface,
  {6daf11de-5d49-44a8-9113-4fd17ffbe2d9}, !- Handle
  Surface 29,                             !- Name
  Wall,                                   !- Surface Type
  ,                                       !- Construction Name
  {e064b11c-ceab-429d-998a-f1da48b10a8d}, !- Space Name
  Outdoors,                               !- Outside Boundary Condition
  ,                                       !- Outside Boundary Condition Object
  SunExposed,                             !- Sun Exposure
  WindExposed,                            !- Wind Exposure
  ,                                       !- View Factor to Ground
  ,                                       !- Number of Vertices
  104.608049461861, -8.90821769607368, 1.005, !- X,Y,Z Vertex 1 {m}
  104.608049461861, -8.90821769607368, 0, !- X,Y,Z Vertex 2 {m}
  100.29803500088, -4.59820323509305, 0,  !- X,Y,Z Vertex 3 {m}
  100.29803500088, -4.59820323509305, 1.005; !- X,Y,Z Vertex 4 {m}

OS:Surface,
  {873ddb81-c5fd-4a6b-8f6d-9c09afc0610f}, !- Handle
  Surface 30,                             !- Name
  Wall,                                   !- Surface Type
  ,                                       !- Construction Name
  {e064b11c-ceab-429d-998a-f1da48b10a8d}, !- Space Name
  Outdoors,                               !- Outside Boundary Condition
  ,                                       !- Outside Boundary Condition Object
  SunExposed,                             !- Sun Exposure
  WindExposed,                            !- Wind Exposure
  ,                                       !- View Factor to Ground
  ,                                       !- Number of Vertices
  100.927286701638, -12.5889804562963, 1.005, !- X,Y,Z Vertex 1 {m}
  100.927286701638, -12.5889804562963, 0, !- X,Y,Z Vertex 2 {m}