
OS:Version,
  {719cefc4-e4b0-4f5a-8dd3-7e7d8b126e3b}, !- Handle
  1.6.0;                                  !- Version Identifier

OS:BuildingStory,
  {0069042a-de15-42cb-baae-6e1db3d35eab}, !- Handle
  Story 1,                                !- Name
  0,                                      !- Nominal Z Coordinate {m}
  1.005,                                  !- Nominal Floor to Floor Height {m}
  ,                                       !- Default Construction Set Name
  ,                                       !- Default Schedule Set Name
  {106480a1-ea5f-44c7-bafa-6959df746708}; !- Group Rendering Name

OS:Space,
  {9376b33a-8027-4ba4-938b-7ce28e69b11c}, !- Handle
  0 Core Space,                           !- Name
  ,                                       !- Space Type Name
  ,                                       !- Default Construction Set Name
  ,                                       !- Default Schedule Set Name
  -0,                                     !- Direction of Relative North {deg}
  -10,                                    !- X Origin {m}
  10,                                     !- Y Origin {m}
  0,                                      !- Z Origin {m}
  {0069042a-de15-42cb-baae-6e1db3d35eab}, !- Building Story Name
  {ab013e77-ca9e-4687-abf4-0e5f078f0d81}; !- Thermal Zone Name

OS:Surface,
  {a951b098-42c5-4254-a785-f110686da397}, !- Handle
  Surface 1,                              !- Name
  Floor,                                  !- Surface Type
  ,                                       !- Construction Name
  {9376b33a-8027-4ba4-938b-7ce28e69b11c}, !- Space Name
  Ground,                                 !- Outside Boundary Condition
  ,                                       !- Outside Boundary Condition Object
  NoSun,                                  !- Sun Exposure
  NoWind,                                 !- Wind Exposure
  ,                                       !- View Factor to Ground
  ,                                       !- Number of Vertices
  20, 0, 0,                               !- X,Y,Z Vertex 1 {m}
  20, -20, 0,                             !- X,Y,Z Vertex 2 {m}
  0, -20, 0,                              !- X,Y,Z Vertex 3 {m}
  0, 0, 0;                                !- X,Y,Z Vertex 4 {m}

OS:Surface,
  {7ce9a617-d41b-41c3-9cd0-87ebde6b19ad}, !- Handle
  Surface 2,                              !- Name
  Wall,                                   !- Surface Type
  ,                                       !- Construction Name
  {9376b33a-8027-4ba4-938b-7ce28e69b11c}, !- Space Name
  Outdoors,                               !- Outside Boundary Condition
  ,                                       !- Outside Boundary Condition Object
  SunExposed,                             !- Sun Exposure
  WindExposed,                            !- Wind Exposure
  ,                                       !- View Factor to Ground
  ,                                       !- Number of Vertices
  5, 0, 1.005,                            !- X,Y,Z Vertex 1 {m}
  5, 0, 0,                                !- X,Y,Z Vertex 2 {m}
  0, 0, 0,                                !- X,Y,Z Vertex 3 {m}
  0, 0, 1.005;                            !- X,Y,Z Vertex 4 {m}

OS:Surface,
  {b6ddc8cd-4859-41c3-a8b3-8ab032abd29c}, !- Handle
  Surface 3,                              !- Name
  Wall,                                   !- Surface Type
  ,                                       !- Construction Name
  {9376b33a-8027-4ba4-938b-7ce28e69b11c}, !- Space Name
  Outdoors,                               !- Outside Boundary Condition
  ,                                       !- Outside Boundary Condition Object
  SunExposed,                             !- Sun Exposure
  WindExposed,                            !- Wind Exposure
  ,                                       !- View Factor to Ground
  ,                                       !- Number of Vertices
  10, 0, 1.005,                           !- X,Y,Z Vertex 1 {m}
  10, 0, 0,                               !- X,Y,Z Vertex 2 {m}
  5, 0, 0,                                !- X,Y,Z Vertex 3 {m}
  5, 0, 1.005;                            !- X,Y,Z Vertex 4 {m}

OS:Surface,
  {b08a7bfc-f954-40d0-a67b-14089d4edb3b}, !- Handle
  Surface 4,                              !- Name
  Wall,                                   !- Surface Type
  ,                                       !- Construction Name
  {9376b33a-8027-4ba4-938b-7ce28e69b11c}, !- Space Name
  Outdoors,                               !- Outside Boundary Condition
  ,                                       !- Outside Boundary Condition Object
  SunExposed,                             !- Sun Exposure
  WindExposed,                            !- Wind Exposure
  ,                                       !- View Factor to Ground
  ,                                       !- Number of Vertices
  15, 0, 1.005,                           !- X,Y,Z Vertex 1 {m}
  15, 0, 0,                               !- X,Y,Z Vertex 2 {m}
  10, 0, 0,                               !- X,Y,Z Vertex 3 {m}
  10, 0, 1.005;                           !- X,Y,Z Vertex 4 {m}

OS:Surface,
  {48afa7b6-e4f8-4c89-8a38-fc8e751d0ed7}, !- Handle
  Surface 5,                              !- Name
  Wall,                                   !- Surface Type
  ,                                       !- Construction Name
  {9376b33a-8027-4ba4-938b-7ce28e69b11c}, !- Space Name
  Outdoors,                               !- Outside Boundary Condition
  ,                                       !- Outside Boundary Condition Object
  SunExposed,                             !- Sun Exposure
  WindExposed,                            !- Wind Exposure
  ,                                       !- View Factor to Ground
  ,                                       !- Number of Vertices
  20, 0, 1.005,                           !- X,Y,Z Vertex 1 {m}
  20, 0, 0,                               !- X,Y,Z Vertex 2 {m}
  15, 0, 0,                               !- X,Y,Z Vertex 3 {m}
  15, 0, 1.005;                           !- X,Y,Z Vertex 4 {m}

OS:Surface,
  {0edd6cdf-b0c7-42bb-b6ec-80b0c8d2d4d5}, !- Handle
  Surface 6,                              !- Name
  Wall,                                   !- Surface Type
  ,                                       !- Construction Name
  {9376b33a-8027-4ba4-938b-7ce28e69b11c}, !- Space Name
  Outdoors,                               !- Outside Boundary Condition
  ,                                       !- Outside Boundary Condition Object
  SunExposed,                             !- Sun Exposure
  WindExposed,                            !- Wind Exposure
  ,                                       !- View Factor to Ground
  ,                                       !- Number of Vertices
  20, -5, 1.005,                          !- X,Y,Z Vertex 1 {m}
  20, -5, 0,                              !- X,Y,Z Vertex 2 {m}
  20, 0, 0,                               !- X,Y,Z Vertex 3 {m}
  20, 0, 1.005;                           !- X,Y,Z Vertex 4 {m}

OS:Surface,
  {2cd70d11-cb88-4602-892a-ded78dea4478}, !- Handle
  Surface 7,                              !- Name
  Wall,                                   !- Surface Type
  ,                                       !- Construction Name
  {9376b33a-8027-4ba4-938b-7ce28e69b11c}, !- Space Name
  Outdoors,                               !- Outside Boundary Condition
  ,                                       !- Outside Boundary Condition Object
  SunExposed,                             !- Sun Exposure
  WindExposed,                            !- Wind Exposure
  ,                                       !- View Factor to Ground
  ,                                       !- Number of Vertices
  20, -10, 1.005,                         !- X,Y,Z Vertex 1 {m}
  20, -10, 0,                             !- X,Y,Z Vertex 2 {m}
  20, -5, 0,                              !- X,Y,Z Vertex 3 {m}
  20, -5, 1.005;                          !- X,Y,Z Vertex 4 {m}

OS:Surface,
  {029a9ed9-eaf6-4afa-9608-990e5fb16c43}, !- Handle
  Surface 8,                              !- Name
  Wall,                                   !- Surface Type
  ,                                       !- Construction Name
  {9376b33a-8027-4ba4-938b-7ce28e69b11c}, !- Space Name
  Outdoors,                               !- Outside Boundary Condition
  ,                                       !- Outside Boundary Condition Object
  SunExposed,                             !- Sun Exposure
  WindExposed,                            !- Wind Exposure
  ,                                       !- View Factor to Ground
  ,                                       !- Number of Vertices
  20, -15, 1.005,                         !- X,Y,Z Vertex 1 {m}
  20, -15, 0,                             !- X,Y,Z Vertex 2 {m}
  20, -10, 0,                             !- X,Y,Z Vertex 3 {m}
  20, -10, 1.005;                         !- X,Y,Z Vertex 4 {m}

OS:Surface,
  {e2c147b8-e400-4a52-aea5-0b6f0d3ed134}, !- Handle
  Surface 9,                              !- Name
  Wall,                                   !- Surface Type
  ,                                       !- Construction Name
  {9376b33a-8027-4ba4-938b-7ce28e69b11c}, !- Space Name
  Outdoors,                               !- Outside Boundary Condition
  ,                                       !- Outside Boundary Condition Object
  SunExposed,                             !- Sun Exposure
  WindExposed,                            !- Wind Exposure
  ,                                       !- View Factor to Ground
  ,                                       !- Number of Vertices
  20, -20, 1.005,                         !- X,Y,Z Vertex 1 {m}
  20, -20, 0,                             !- X,Y,Z Vertex 2 {m}
  20, -15, 0,                             !- X,Y,Z Vertex 3 {m}
  20, -15, 1.005;                         !- X,Y,Z Vertex 4 {m}

OS:Surface,
  {8424541b-2f58-43f1-bf6c-83ca31e50852}, !- Handle
  Surface 10,                             !- Name
  Wall,                                   !- Surface Type
  ,                                       !- Construction Name
  {9376b33a-8027-4ba4-938b-7ce28e69b11c}, !- Space Name
  Outdoors,                               !- Outside Boundary Condition
  ,                                       !- Outside Boundary Condition Object
  SunExposed,                             !- Sun Exposure
  WindExposed,                            !- Wind Exposure
  ,                                       !- View Factor to Ground
  ,                                       !- Number of Vertices
  15, -20, 1.005,                         !- X,Y,Z Vertex 1 {m}
  15, -20, 0,                             !- X,Y,Z Vertex 2 {m}
  20, -20, 0,                             !- X,Y,Z Vertex 3 {m}
  20, -20, 1.005;                         !- X,Y,Z Vertex 4 {m}

OS:Surface,
  {e8ad8bbe-5945-4f7a-8aa7-cc066fc3118b}, !- Handle
  Surface 11,                             !- Name
  Wall,                                   !- Surface Type
  ,                                       !- Construction Name
  {9376b33a-8027-4ba4-938b-7ce28e69b11c}, !- Space Name
  Outdoors,                               !- Outside Boundary Condition
  ,                                       !- Outside Boundary Condition Object
  SunExposed,                             !- Sun Exposure
  WindExposed,                            !- Wind Exposure
  ,                                       !- View Factor to Ground
  ,                                       !- Number of Vertices
  10, -20, 1.005,                         !- X,Y,Z Vertex 1 {m}
  10, -20, 0,                             !- X,Y,Z Vertex 2 {m}
  15, -20, 0,                             !- X,Y,Z Vertex 3 {m}
  15, -20, 1.005;                         !- X,Y,Z Vertex 4 {m}

OS:Surface,
  {dfde7a56-d984-4a11-acd5-2e83ddf302bd}, !- Handle
  Surface 12,                             !- Name
  Wall,                                   !- Surface Type
  ,                                       !- Construction Name
  {9376b33a-8027-4ba4-938b-7ce28e69b11c}, !- Space Name
  Outdoors,                               !- Outside Boundary Condition
  ,                                       !- Outside Boundary Condition Object
  SunExposed,                             !- Sun Exposure
  WindExposed,                            !- Wind Exposure
  ,                                       !- View Factor to Ground
  ,                                       !- Number of Vertices
  5, -20, 1.005,                          !- X,Y,Z Vertex 1 {m}
  5, -20, 0,                              !- X,Y,Z Vertex 2 {m}
  10, -20, 0,                             !- X,Y,Z Vertex 3 {m}
  10, -20, 1.005;                         !- X,Y,Z Vertex 4 {m}

OS:Surface,
  {1b9f755a-b7de-4c47-9747-cff9e03ae9e3}, !- Handle
  Surface 13,                             !- Name
  Wall,                                   !- Surface Type
  ,                                       !- Construction Name
  {9376b33a-8027-4ba4-938b-7ce28e69b11c}, !- Space Name
  Outdoors,                               !- Outside Boundary Condition
  ,                                       !- Outside Boundary Condition Object
  SunExposed,                             !- Sun Exposure
  WindExposed,                            !- Wind Exposure
  ,                                       !- View Factor to Ground
  ,                                       !- Number of Vertices
  0, -20, 1.005,                          !- X,Y,Z Vertex 1 {m}
  0, -20, 0,                              !- X,Y,Z Vertex 2 {m}
  5, -20, 0,                              !- X,Y,Z Vertex 3 {m}
  5, -20, 1.005;                          !- X,Y,Z Vertex 4 {m}

OS:Surface,
  {2e770771-f9d7-46c5-ad87-4997bbbde75e}, !- Handle
  Surface 14,                             !- Name
  Wall,                                   !- Surface Type
  ,                                       !- Construction Name
  {9376b33a-8027-4ba4-938b-7ce28e69b11c}, !- Space Name
  Outdoors,                               !- Outside Boundary Condition
  ,                                       !- Outside Boundary Condition Object
  SunExposed,                             !- Sun Exposure
  WindExposed,                            !- Wind Exposure
  ,                                       !- View Factor to Ground
  ,                                       !- Number of Vertices
  0, -15, 1.005,                          !- X,Y,Z Vertex 1 {m}
  0, -15, 0,                              !- X,Y,Z Vertex 2 {m}
  0, -20, 0,                              !- X,Y,Z Vertex 3 {m}
  0, -20, 1.005;                          !- X,Y,Z Vertex 4 {m}

OS:Surface,
  {c483aa8d-77d3-4788-8a41-62c1d00f1c68}, !- Handle
  Surface 15,                             !- Name
  Wall,                                   !- Surface Type
  ,                                       !- Construction Name
  {9376b33a-8027-4ba4-938b-7ce28e69b11c}, !- Space Name
  Outdoors,                               !- Outside Boundary Condition
  ,                                       !- Outside Boundary Condition Object
  SunExposed,                             !- Sun Exposure
  WindExposed,                            !- Wind Exposure
  ,                                       !- View Factor to Ground
  ,                                       !- Number of Vertices
  0, -10, 1.005,                          !- X,Y,Z Vertex 1 {m}
  0, -10, 0,                              !- X,Y,Z Vertex 2 {m}
  0, -15, 0,                              !- X,Y,Z Vertex 3 {m}
  0, -15, 1.005;                          !- X,Y,Z Vertex 4 {m}

OS:Surface,
  {cc8b87cf-351f-44e3-95c5-30a4899b9756}, !- Handle
  Surface 16,                             !- Name
  Wall,                                   !- Surface Type
  ,                                       !- Construction Name
  {9376b33a-8027-4ba4-938b-7ce28e69b11c}, !- Space Name
  Outdoors,                               !- Outside Boundary Condition
  ,                                       !- Outside Boundary Condition Object
  SunExposed,                             !- Sun Exposure
  WindExposed,                            !- Wind Exposure
  ,                                       !- View Factor to Ground
  ,                                       !- Number of Vertices
  0, -5, 1.005,                           !- X,Y,Z Vertex 1 {m}
  0, -5, 0,                               !- X,Y,Z Vertex 2 {m}
  0, -10, 0,                              !- X,Y,Z Vertex 3 {m}
  0, -10, 1.005;                          !- X,Y,Z Vertex 4 {m}

OS:Surface,
  {986545c2-5a00-462c-80b9-acf0a0df65bb}, !- Handle
  Surface 17,                             !- Name
  Wall,                                   !- Surface Type
  ,                                       !- Construction Name
  {9376b33a-8027-4ba4-938b-7ce28e69b11c}, !- Space Name
  Outdoors,                               !- Outside Boundary Condition
  ,                                       !- Outside Boundary Condition Object
  SunExposed,                             !- Sun Exposure
  WindExposed,                            !- Wind Exposure
  ,                                       !- View Factor to Ground
  ,                                       !- Number of Vertices
  0, 0, 1.005,                            !- X,Y,Z Vertex 1 {m}
  0, 0, 0,                                !- X,Y,Z Vertex 2 {m}
  0, -5, 0,                               !- X,Y,Z Vertex 3 {m}
  0, -5, 1.005;                           !- X,Y,Z Vertex 4 {m}

OS:BuildingStory,
  {115d82e1-4fba-47b1-9520-ec8175f05095}, !- Handle
  Story 2,                                !- Name
  1.005,                                  !- Nominal Z Coordinate {m}
  0.99,                                   !- Nominal Floor to Floor Height {m}
  ,                                       !- Default Construction Set Name
  ,                                       !- Default Schedule Set Name
  {1d92ef41-47d4-438a-b7a4-3d4c9096102b}; !- Group Rendering Name

OS:Space,
  {ffa59f97-619c-46e9-a2bf-1cb20ae24218}, !- Handle
  0 Core Space 1,                         !- Name
  ,                                       !- Space Type Name
  ,                                       !- Default Construction Set Name
  ,                                       !- Default Schedule Set Name
  -0,                                     !- Direction of Relative North {deg}
  -10,                                    !- X Origin {m}
  10,                                     !- Y Origin {m}
  1.005,                                  !- Z Origin {m}
  {115d82e1-4fba-47b1-9520-ec8175f05095}, !- Building Story Name
  {161abf1d-2e18-47a3-b67e-9821ceb89c53}; !- Thermal Zone Name

OS:Surface,
  {d4366a40-5b34-45d1-860d-6fdac6560561}, !- Handle
  Surface 20,                             !- Name
  Wall,                                   !- Surface Type
  ,                                       !- Construction Name
  {ffa59f97-619c-46e9-a2bf-1cb20ae24218}, !- Space Name
  Outdoors,                               !- Outside Boundary Condition
  ,                                       !- Outside Boundary Condition Object
  SunExposed,                             !- Sun Exposure
  WindExposed,                            !- Wind Exposure
  ,                                       !- View Factor to Ground
  ,                                       !- Number of Vertices
  5, 0, 0.99,                             !- X,Y,Z Vertex 1 {m}
  5, 0, 0,                                !- X,Y,Z Vertex 2 {m}
  0, 0, 0,                                !- X,Y,Z Vertex 3 {m}
  0, 0, 0.99;                             !- X,Y,Z Vertex 4 {m}

OS:Surface,
  {a51cfc88-4da3-4ac5-8cf7-8b842fb2a094}, !- Handle
  Surface 21,                             !- Name
  Wall,                                   !- Surface Type
  ,                                       !- Construction Name
  {ffa59f97-619c-46e9-a2bf-1cb20ae24218}, !- Space Name
  Outdoors,                               !- Outside Boundary Condition
  ,                                       !- Outside Boundary Condition Object
  SunExposed,                             !- Sun Exposure
  WindExposed,                            !- Wind Exposure
  ,                                       !- View Factor to Ground
  ,                                       !- Number of Vertices
  10, 0, 0.99,                            !- X,Y,Z Vertex 1 {m}
  10, 0, 0,                               !- X,Y,Z Vertex 2 {m}
  5, 0, 0,                                !- X,Y,Z Vertex 3 {m}
  5, 0, 0.99;                             !- X,Y,Z Vertex 4 {m}

OS:Surface,
  {220603f5-e711-44f4-9001-78431c1270e9}, !- Handle
  Surface 22,                             !- Name
  Wall,                                   !- Surface Type
  ,                                       !- Construction Name
  {ffa59f97-619c-46e9-a2bf-1cb20ae24218}, !- Space Name
  Outdoors,                               !- Outside Boundary Condition
  ,                                       !- Outside Boundary Condition Object
  SunExposed,                             !- Sun Exposure
  WindExposed,                            !- Wind Exposure
  ,                                       !- View Factor to Ground
  ,                                       !- Number of Vertices
  15, 0, 0.99,                            !- X,Y,Z Vertex 1 {m}
  15, 0, 0,                               !- X,Y,Z Vertex 2 {m}
  10, 0, 0,                               !- X,Y,Z Vertex 3 {m}
  10, 0, 0.99;                            !- X,Y,Z Vertex 4 {m}

OS:Surface,
  {2643a438-2286-42fc-b709-b79f83f52ec5}, !- Handle
  Surface 23,                             !- Name
  Wall,                                   !- Surface Type
  ,                                       !- Construction Name
  {ffa59f97-619c-46e9-a2bf-1cb20ae24218}, !- Space Name
  Outdoors,                               !- Outside Boundary Condition
  ,                                       !- Outside Boundary Condition Object
  SunExposed,                             !- Sun Exposure
  WindExposed,                            !- Wind Exposure
  ,                                       !- View Factor to Ground
  ,                                       !- Number of Vertices
  20, 0, 0.99,                            !- X,Y,Z Vertex 1 {m}
  20, 0, 0,                               !- X,Y,Z Vertex 2 {m}
  15, 0, 0,                               !- X,Y,Z Vertex 3 {m}
  15, 0, 0.99;                            !- X,Y,Z Vertex 4 {m}

OS:Surface,
  {10d30a2b-f23c-4048-b642-fa5912ad7fa4}, !- Handle
  Surface 24,                             !- Name
  Wall,                                   !- Surface Type
  ,                                       !- Construction Name
  {ffa59f97-619c-46e9-a2bf-1cb20ae24218}, !- Space Name
  Outdoors,                               !- Outside Boundary Condition
  ,                                       !- Outside Boundary Condition Object
  SunExposed,                             !- Sun Exposure
  WindExposed,                            !- Wind Exposure
  ,                                       !- View Factor to Ground
  ,                                       !- Number of Vertices
  20, -5, 0.99,                           !- X,Y,Z Vertex 1 {m}
  20, -5, 0,                              !- X,Y,Z Vertex 2 {m}
  20, 0, 0,                               !- X,Y,Z Vertex 3 {m}
  20, 0, 0.99;                            !- X,Y,Z Vertex 4 {m}

OS:Surface,
  {b6d50a9f-2f4a-4a2b-85e5-dc635bde015d}, !- Handle
  Surface 25,                             !- Name
  Wall,                                   !- Surface Type
  ,                                       !- Construction Name
  {ffa59f97-619c-46e9-a2bf-1cb20ae24218}, !- Space Name
  Outdoors,                               !- Outside Boundary Condition
  ,                                       !- Outside Boundary Condition Object
  SunExposed,                             !- Sun Exposure
  WindExposed,                            !- Wind Exposure
  ,                                       !- View Factor to Ground
  ,                                       !- Number of Vertices
  20, -10, 0.99,                          !- X,Y,Z Vertex 1 {m}
  20, -10, 0,                             !- X,Y,Z Vertex 2 {m}
  20, -5, 0,                              !- X,Y,Z Vertex 3 {m}
  20, -5, 0.99;                           !- X,Y,Z Vertex 4 {m}

OS:Surface,
  {9a602a59-6e01-4d26-8e3e-480d1c32aff6}, !- Handle
  Surface 26,                             !- Name
  Wall,                                   !- Surface Type
  ,                                       !- Construction Name
  {ffa59f97-619c-46e9-a2bf-1cb20ae24218}, !- Space Name
  Outdoors,                               !- Outside Boundary Condition
  ,                                       !- Outside Boundary Condition Object
  SunExposed,                             !- Sun Exposure
  WindExposed,                            !- Wind Exposure
  ,                                       !- View Factor to Ground
  ,                                       !- Number of Vertices
  20, -15, 0.99,                          !- X,Y,Z Vertex 1 {m}
  20, -15, 0,                             !- X,Y,Z Vertex 2 {m}
  20, -10, 0,                             !- X,Y,Z Vertex 3 {m}
  20, -10, 0.99;                          !- X,Y,Z Vertex 4 {m}

OS:Surface,
  {d2b23377-1bcd-4ab2-a4b9-8f205b4ee735}, !- Handle
  Surface 27,                             !- Name
  Wall,                                   !- Surface Type
  ,                                       !- Construction Name
  {ffa59f97-619c-46e9-a2bf-1cb20ae24218}, !- Space Name
  Outdoors,                               !- Outside Boundary Condition
  ,                                       !- Outside Boundary Condition Object
  SunExposed,                             !- Sun Exposure
  WindExposed,                            !- Wind Exposure
  ,                                       !- View Factor to Ground
  ,                                       !- Number of Vertices
  20, -20, 0.99,                          !- X,Y,Z Vertex 1 {m}
  20, -20, 0,                             !- X,Y,Z Vertex 2 {m}
  20, -15, 0,                             !- X,Y,Z Vertex 3 {m}
  20, -15, 0.99;                          !- X,Y,Z Vertex 4 {m}

OS:Surface,
  {86d3aa9b-0fdc-44a5-bb77-7b1bec6958d7}, !- Handle
  Surface 28,                             !- Name
  Wall,                                   !- Surface Type
  ,                                       !- Construction Name
  {ffa59f97-619c-46e9-a2bf-1cb20ae24218}, !- Space Name
  Outdoors,                               !- Outside Boundary Condition
  ,                                       !- Outside Boundary Condition Object
  SunExposed,                             !- Sun Exposure
  WindExposed,                            !- Wind Exposure
  ,                                       !- View Factor to Ground
  ,                                       !- Number of Vertices
  15, -20, 0.99,                          !- X,Y,Z Vertex 1 {m}
  15, -20, 0,                             !- X,Y,Z Vertex 2 {m}
  20, -20, 0,                             !- X,Y,Z Vertex 3 {m}
  20, -20, 0.99;                          !- X,Y,Z Vertex 4 {m}

OS:Surface,
  {edfe85c8-5d61-4634-8718-d7bd967a8b62}, !- Handle
  Surface 29,                             !- Name
  Wall,                                   !- Surface Type
  ,                                       !- Construction Name
  {ffa59f97-619c-46e9-a2bf-1cb20ae24218}, !- Space Name
  Outdoors,                               !- Outside Boundary Condition
  ,                                       !- Outside Boundary Condition Object
  SunExposed,                             !- Sun Exposure
  WindExposed,                            !- Wind Exposure
  ,                                       !- View Factor to Ground
  ,                                       !- Number of Vertices
  10, -20, 0.99,                          !- X,Y,Z Vertex 1 {m}
  10, -20, 0,                             !- X,Y,Z Vertex 2 {m}
  15, -20, 0,                             !- X,Y,Z Vertex 3 {m}
  15, -20, 0.99;                          !- X,Y,Z Vertex 4 {m}

OS:Surface,
  {b42b3065-7b7e-431d-ae8c-df084685b239}, !- Handle
  Surface 30,                             !- Name
  Wall,                                   !- Surface Type
  ,                                       !- Construction Name
  {ffa59f97-619c-46e9-a2bf-1cb20ae24218}, !- Space Name
  Outdoors,                               !- Outside Boundary Condition
  ,                                       !- Outside Boundary Condition Object
  SunExposed,                             !- Sun Exposure
  WindExposed,                            !- Wind Exposure
  ,                                       !- View Factor to Ground
  ,                                       !- Number of Vertices
  5, -20, 0.99,                           !- X,Y,Z Vertex 1 {m}
  5, -20, 0,                              !- X,Y,Z Vertex 2 {m}
  10, -20, 0,                             !- X,Y,Z Vertex 3 {m}
  10, -20, 0.99;                          !- X,Y,Z Vertex 4 {m}

OS:Surface,
  {203cd519-0c52-4588-9607-7772d2116993}, !- Handle
  Surface 31,                             !- Name
  Wall,                                   !- Surface Type
  ,                                       !- Construction Name
  {ffa59f97-619c-46e9-a2bf-1cb20ae24218}, !- Space Name
  Outdoors,                               !- Outside Boundary Condition
  ,                                       !- Outside Boundary Condition Object
  SunExposed,                             !- Sun Exposure
  WindExposed,                            !- Wind Exposure
  ,                                       !- View Factor to Ground
  ,                                       !- Number of Vertices
  0, -20, 0.99,                           !- X,Y,Z Vertex 1 {m}
  0, -20, 0,                              !- X,Y,Z Vertex 2 {m}
  5, -20, 0,                              !- X,Y,Z Vertex 3 {m}
  5, -20, 0.99;                           !- X,Y,Z Vertex 4 {m}

OS:Surface,