
OS:Version,
  {53a5ffdd-1eda-426c-889f-ab0424e36b80}, !- Handle
  1.6.0;                                  !- Version Identifier

OS:BuildingStory,
  {04ed6f1d-7eab-40b8-a876-f6d1f3b0ba9d}, !- Handle
  Story 1,                                !- Name
  0,                                      !- Nominal Z Coordinate {m}
  1.34,                                   !- Nominal Floor to Floor Height {m}
  ,                                       !- Default Construction Set Name
  ,                                       !- Default Schedule Set Name
  ;                                       !- Group Rendering Name

OS:Space,
  {fd979e86-aa3f-478f-ba9d-7dd5934c574a}, !- Handle
  0 Core Space,                           !- Name
  ,                                       !- Space Type Name
  ,                                       !- Default Construction Set Name
  ,                                       !- Default Schedule Set Name
  -0,                                     !- Direction of Relative North {deg}
  28.23,                                  !- X Origin {m}
  58.52,                                  !- Y Origin {m}
  0,                                      !- Z Origin {m}
  {04ed6f1d-7eab-40b8-a876-f6d1f3b0ba9d}, !- Building Story Name
  {db3e2423-c431-45a3-94b1-3f63e2c92e22}; !- Thermal Zone Name

OS:Surface,
  {20a93297-edfb-4b2e-bb75-a8445d4e28da}, !- Handle
  Surface 1,                              !- Name
  Floor,                                  !- Surface Type
  ,                                       !- Construction Name
  {fd979e86-aa3f-478f-ba9d-7dd5934c574a}, !- Space Name
  Ground,                                 !- Outside Boundary Condition
  ,                                       !- Outside Boundary Condition Object
  NoSun,                                  !- Sun Exposure
  NoWind,                                 !- Wind Exposure
  ,                                       !- View Factor to Ground
  ,                                       !- Number of Vertices
  0, 0, 0,                                !- X,Y,Z Vertex 1 {m}
  0, -5.852, 0,                           !- X,Y,Z Vertex 2 {m}
  0, -11.704, 0,                          !- X,Y,Z Vertex 3 {m}
  0, -17.556, 0,                          !- X,Y,Z Vertex 4 {m}
  0, -23.408, 0,                          !- X,Y,Z Vertex 5 {m}
  0, -29.26, 0,                           !- X,Y,Z Vertex 6 {m}
  -5.3771428571429, -29.26, 0,            !- X,Y,Z Vertex 7 {m}
  -10.7542857142857, -29.26, 0,           !- X,Y,Z Vertex 8 {m}
  -16.1314285714286, -29.26, 0,           !- X,Y,Z Vertex 9 {m}
  -21.5085714285714, -29.26, 0,           !- X,Y,Z Vertex 10 {m}
  -26.8857142857143, -29.26, 0,           !- X,Y,Z Vertex 11 {m}
  -32.2628571428571, -29.26, 0,           !- X,Y,Z Vertex 12 {m}
  -37.64, -29.26, 0,                      !- X,Y,Z Vertex 13 {m}
  -37.64, -34.58, 0,                      !- X,Y,Z Vertex 14 {m}
  -37.64, -39.9, 0,                       !- X,Y,Z Vertex 15 {m}
  -37.64, -45.22, 0,                      !- X,Y,Z Vertex 16 {m}
  -37.64, -50.54, 0,                      !- X,Y,Z Vertex 17 {m}
  -37.64, -55.86, 0,                      !- X,Y,Z Vertex 18 {m}
  -37.64, -61.18, 0,                      !- X,Y,Z Vertex 19 {m}
  -37.64, -66.5, 0,                       !- X,Y,Z Vertex 20 {m}
  -37.64, -71.82, 0,                      !- X,Y,Z Vertex 21 {m}
  -37.64, -77.14, 0,                      !- X,Y,Z Vertex 22 {m}
  -37.64, -82.46, 0,                      !- X,Y,Z Vertex 23 {m}
  -37.64, -87.78, 0,                      !- X,Y,Z Vertex 24 {m}
  -32.2628571428571, -87.78, 0,           !- X,Y,Z Vertex 25 {m}
  -26.8857142857143, -87.78, 0,           !- X,Y,Z Vertex 26 {m}
  -21.5085714285714, -87.78, 0,           !- X,Y,Z Vertex 27 {m}
  -16.1314285714286, -87.78, 0,           !- X,Y,Z Vertex 28 {m}
  -10.7542857142857, -87.78, 0,           !- X,Y,Z Vertex 29 {m}
  -5.3771428571429, -87.78, 0,            !- X,Y,Z Vertex 30 {m}
  0, -87.78, 0,                           !- X,Y,Z Vertex 31 {m}
  0, -93.632, 0,                          !- X,Y,Z Vertex 32 {m}
  0, -99.484, 0,                          !- X,Y,Z Vertex 33 {m}
  0, -105.336, 0,                         !- X,Y,Z Vertex 34 {m}
  0, -111.188, 0,                         !- X,Y,Z Vertex 35 {m}
  0, -117.04, 0,                          !- X,Y,Z Vertex 36 {m}
  -5.0186666666667, -117.04, 0,           !- X,Y,Z Vertex 37 {m}
  -10.0373333333333, -117.04, 0,          !- X,Y,Z Vertex 38 {m}
  -15.056, -117.04, 0,                    !- X,Y,Z Vertex 39 {m}
  -20.0746666666667, -117.04, 0,          !- X,Y,Z Vertex 40 {m}
  -25.0933333333333, -117.04, 0,          !- X,Y,Z Vertex 41 {m}
  -30.112, -117.04, 0,                    !- X,Y,Z Vertex 42 {m}
  -35.1306666666667, -117.04, 0,          !- X,Y,Z Vertex 43 {m}
  -40.1493333333333, -117.04, 0,          !- X,Y,Z Vertex 44 {m}
  -45.168, -117.04, 0,                    !- X,Y,Z Vertex 45 {m}
  -50.1866666666667, -117.04, 0,          !- X,Y,Z Vertex 46 {m}
  -55.2053333333333, -117.04, 0,          !- X,Y,Z Vertex 47 {m}
  -60.224, -117.04, 0,                    !- X,Y,Z Vertex 48 {m}
  -65.2426666666667, -117.04, 0,          !- X,Y,Z Vertex 49 {m}
  -70.2613333333333, -117.04, 0,          !- X,Y,Z Vertex 50 {m}
  -75.28, -117.04, 0,                     !- X,Y,Z Vertex 51 {m}
  -75.28, -111.951304347826, 0,           !- X,Y,Z Vertex 52 {m}
  -75.28, -106.862608695652, 0,           !- X,Y,Z Vertex 53 {m}
  -75.28, -101.773913043478, 0,           !- X,Y,Z Vertex 54 {m}
  -75.28, -96.6852173913044, 0,           !- X,Y,Z Vertex 55 {m}
  -75.28, -91.5965217391304, 0,           !- X,Y,Z Vertex 56 {m}
  -75.28, -86.5078260869565, 0,           !- X,Y,Z Vertex 57 {m}
  -75.28, -81.4191304347826, 0,           !- X,Y,Z Vertex 58 {m}
  -75.28, -76.3304347826087, 0,           !- X,Y,Z Vertex 59 {m}
  -75.28, -71.2417391304348, 0,           !- X,Y,Z Vertex 60 {m}
  -75.28, -66.1530434782609, 0,           !- X,Y,Z Vertex 61 {m}
  -75.28, -61.064347826087, 0,            !- X,Y,Z Vertex 62 {m}
  -75.28, -55.975652173913, 0,            !- X,Y,Z Vertex 63 {m}
  -75.28, -50.8869565217391, 0,           !- X,Y,Z Vertex 64 {m}
  -75.28, -45.7982608695652, 0,           !- X,Y,Z Vertex 65 {m}
  -75.28, -40.7095652173913, 0,           !- X,Y,Z Vertex 66 {m}
  -75.28, -35.6208695652174, 0,           !- X,Y,Z Vertex 67 {m}
  -75.28, -30.5321739130435, 0,           !- X,Y,Z Vertex 68 {m}
  -75.28, -25.4434782608696, 0,           !- X,Y,Z Vertex 69 {m}
  -75.28, -20.3547826086956, 0,           !- X,Y,Z Vertex 70 {m}
  -75.28, -15.2660869565217, 0,           !- X,Y,Z Vertex 71 {m}
  -75.28, -10.1773913043478, 0,           !- X,Y,Z Vertex 72 {m}
  -75.28, -5.0886956521739, 0,            !- X,Y,Z Vertex 73 {m}
  -75.28, 0, 0,                           !- X,Y,Z Vertex 74 {m}
  -70.2613333333333, 0, 0,                !- X,Y,Z Vertex 75 {m}
  -65.2426666666667, 0, 0,                !- X,Y,Z Vertex 76 {m}
  -60.224, 0, 0,                          !- X,Y,Z Vertex 77 {m}
  -55.2053333333333, 0, 0,                !- X,Y,Z Vertex 78 {m}
  -50.1866666666667, 0, 0,                !- X,Y,Z Vertex 79 {m}
  -45.168, 0, 0,                          !- X,Y,Z Vertex 80 {m}
  -40.1493333333333, 0, 0,                !- X,Y,Z Vertex 81 {m}
  -35.1306666666667, 0, 0,                !- X,Y,Z Vertex 82 {m}
  -30.112, 0, 0,                          !- X,Y,Z Vertex 83 {m}
  -25.0933333333333, 0, 0,                !- X,Y,Z Vertex 84 {m}
  -20.0746666666667, 0, 0,                !- X,Y,Z Vertex 85 {m}
  -15.056, 0, 0,                          !- X,Y,Z Vertex 86 {m}
  -10.0373333333333, 0, 0,                !- X,Y,Z Vertex 87 {m}
  -5.0186666666667, 0, 0;                 !- X,Y,Z Vertex 88 {m}

OS:Surface,
  {6ba4beb2-0289-488b-8f82-64957e633756}, !- Handle
  Surface 2,                              !- Name
  Wall,                                   !- Surface Type
  ,                                       !- Construction Name
  {fd979e86-aa3f-478f-ba9d-7dd5934c574a}, !- Space Name
  Outdoors,                               !- Outside Boundary Condition
  ,                                       !- Outside Boundary Condition Object
  SunExposed,                             !- Sun Exposure
  WindExposed,                            !- Wind Exposure
  ,                                       !- View Factor to Ground
  ,                                       !- Number of Vertices
  0, -5.852, 1.34,                        !- X,Y,Z Vertex 1 {m}
  0, -5.852, 0,                           !- X,Y,Z Vertex 2 {m}
  0, 0, 0,                                !- X,Y,Z Vertex 3 {m}
  0, 0, 1.34;                             !- X,Y,Z Vertex 4 {m}

OS:Surface,
  {2ece5106-fea5-4a22-a315-c08509aae06c}, !- Handle
  Surface 3,                              !- Name
  Wall,                                   !- Surface Type
  ,                                       !- Construction Name
  {fd979e86-aa3f-478f-ba9d-7dd5934c574a}, !- Space Name
  Outdoors,                               !- Outside Boundary Condition
  ,                                       !- Outside Boundary Condition Object
  SunExposed,                             !- Sun Exposure
  WindExposed,                            !- Wind Exposure
  ,                                       !- View Factor to Ground
  ,                                       !- Number of Vertices
  0, -11.704, 1.34,                       !- X,Y,Z Vertex 1 {m}
  0, -11.704, 0,                          !- X,Y,Z Vertex 2 {m}
  0, -5.852, 0,                           !- X,Y,Z Vertex 3 {m}
  0, -5.852, 1.34;                        !- X,Y,Z Vertex 4 {m}

OS:Surface,
  {b5a4ba8a-1f02-4313-ad92-bfad8aa5b50a}, !- Handle
  Surface 4,                              !- Name
  Wall,                                   !- Surface Type
  ,                                       !- Construction Name
  {fd979e86-aa3f-478f-ba9d-7dd5934c574a}, !- Space Name
  Outdoors,                               !- Outside Boundary Condition
  ,                                       !- Outside Boundary Condition Object
  SunExposed,                             !- Sun Exposure
  WindExposed,                            !- Wind Exposure
  ,                                       !- View Factor to Ground
  ,                                       !- Number of Vertices
  0, -17.556, 1.34,                       !- X,Y,Z Vertex 1 {m}
  0, -17.556, 0,                          !- X,Y,Z Vertex 2 {m}
  0, -11.704, 0,                          !- X,Y,Z Vertex 3 {m}
  0, -11.704, 1.34;                       !- X,Y,Z Vertex 4 {m}

OS:Surface,
  {c895dd09-9215-4ebc-b216-650746c5f2b3}, !- Handle
  Surface 5,                              !- Name
  Wall,                                   !- Surface Type
  ,                                       !- Construction Name
  {fd979e86-aa3f-478f-ba9d-7dd5934c574a}, !- Space Name
  Outdoors,                               !- Outside Boundary Condition
  ,                                       !- Outside Boundary Condition Object
  SunExposed,                             !- Sun Exposure
  WindExposed,                            !- Wind Exposure
  ,                                       !- View Factor to Ground
  ,                                       !- Number of Vertices
  0, -23.408, 1.34,                       !- X,Y,Z Vertex 1 {m}
  0, -23.408, 0,                          !- X,Y,Z Vertex 2 {m}
  0, -17.556, 0,                          !- X,Y,Z Vertex 3 {m}
  0, -17.556, 1.34;                       !- X,Y,Z Vertex 4 {m}

OS:Surface,
  {7a3a27d8-caeb-4a09-a973-842eb9a361d9}, !- Handle
  Surface 6,                              !- Name
  Wall,                                   !- Surface Type
  ,                                       !- Construction Name
  {fd979e86-aa3f-478f-ba9d-7dd5934c574a}, !- Space Name
  Outdoors,                               !- Outside Boundary Condition
  ,                                       !- Outside Boundary Condition Object
  SunExposed,                             !- Sun Exposure
  WindExposed,                            !- Wind Exposure
  ,                                       !- View Factor to Ground
  ,                                       !- Number of Vertices
  0, -29.26, 1.34,                        !- X,Y,Z Vertex 1 {m}
  0, -29.26, 0,                           !- X,Y,Z Vertex 2 {m}
  0, -23.408, 0,                          !- X,Y,Z Vertex 3 {m}
  0, -23.408, 1.34;                       !- X,Y,Z Vertex 4 {m}

OS:Surface,
  {2356925d-ce40-4d50-9cae-182d6dd39fe0}, !- Handle
  Surface 7,                              !- Name
  Wall,                                   !- Surface Type
  ,                                       !- Construction Name
  {fd979e86-aa3f-478f-ba9d-7dd5934c574a}, !- Space Name
  Outdoors,                               !- Outside Boundary Condition
  ,                                       !- Outside Boundary Condition Object
  SunExposed,                             !- Sun Exposure
  WindExposed,                            !- Wind Exposure
  ,                                       !- View Factor to Ground
  ,                                       !- Number of Vertices
  -5.3771428571429, -29.26, 1.34,         !- X,Y,Z Vertex 1 {m}
  -5.3771428571429, -29.26, 0,            !- X,Y,Z Vertex 2 {m}
  0, -29.26, 0,                           !- X,Y,Z Vertex 3 {m}
  0, -29.26, 1.34;                        !- X,Y,Z Vertex 4 {m}

OS:Surface,
  {6a96b713-e1dc-46d5-8d5b-b1cde794486a}, !- Handle
  Surface 8,                              !- Name
  Wall,                                   !- Surface Type
  ,                                       !- Construction Name
  {fd979e86-aa3f-478f-ba9d-7dd5934c574a}, !- Space Name
  Outdoors,                               !- Outside Boundary Condition
  ,                                       !- Outside Boundary Condition Object
  SunExposed,                             !- Sun Exposure
  WindExposed,                            !- Wind Exposure
  ,                                       !- View Factor to Ground
  ,                                       !- Number of Vertices
  -10.7542857142857, -29.26, 1.34,        !- X,Y,Z Vertex 1 {m}
  -10.7542857142857, -29.26, 0,           !- X,Y,Z Vertex 2 {m}
  -5.3771428571429, -29.26, 0,            !- X,Y,Z Vertex 3 {m}
  -5.3771428571429, -29.26, 1.34;         !- X,Y,Z Vertex 4 {m}

OS:Surface,
  {82cee2bf-d697-43a0-a590-c4700bbdb9af}, !- Handle
  Surface 9,                              !- Name
  Wall,                                   !- Surface Type
  ,                                       !- Construction Name
  {fd979e86-aa3f-478f-ba9d-7dd5934c574a}, !- Space Name
  Outdoors,                               !- Outside Boundary Condition
  ,                                       !- Outside Boundary Condition Object
  SunExposed,                             !- Sun Exposure
  WindExposed,                            !- Wind Exposure
  ,                                       !- View Factor to Ground
  ,                                       !- Number of Vertices
  -16.1314285714286, -29.26, 1.34,        !- X,Y,Z Vertex 1 {m}
  -16.1314285714286, -29.26, 0,           !- X,Y,Z Vertex 2 {m}
  -10.7542857142857, -29.26, 0,           !- X,Y,Z Vertex 3 {m}
  -10.7542857142857, -29.26, 1.34;        !- X,Y,Z Vertex 4 {m}

OS:Surface,
  {048e3a5f-96ed-4a8a-bbc0-144954da959c}, !- Handle
  Surface 10,                             !- Name
  Wall,                                   !- Surface Type
  ,                                       !- Construction Name
  {fd979e86-aa3f-478f-ba9d-7dd5934c574a}, !- Space Name
  Outdoors,                               !- Outside Boundary Condition
  ,                                       !- Outside Boundary Condition Object
  SunExposed,                             !- Sun Exposure
  WindExposed,                            !- Wind Exposure
  ,                                       !- View Factor to Ground
  ,                                       !- Number of Vertices
  -21.5085714285714, -29.26, 1.34,        !- X,Y,Z Vertex 1 {m}
  -21.5085714285714, -29.26, 0,           !- X,Y,Z Vertex 2 {m}
  -16.1314285714286, -29.26, 0,           !- X,Y,Z Vertex 3 {m}
  -16.1314285714286, -29.26, 1.34;        !- X,Y,Z Vertex 4 {m}

OS:Surface,
  {9f0e81e9-ea2a-4fef-9189-9f0183fcf11a}, !- Handle
  Surface 11,                             !- Name
  Wall,                                   !- Surface Type
  ,                                       !- Construction Name
  {fd979e86-aa3f-478f-ba9d-7dd5934c574a}, !- Space Name
  Outdoors,                               !- Outside Boundary Condition
  ,                                       !- Outside Boundary Condition Object
  SunExposed,                             !- Sun Exposure
  WindExposed,                            !- Wind Exposure
  ,                                       !- View Factor to Ground
  ,                                       !- Number of Vertices
  -26.8857142857143, -29.26, 1.34,        !- X,Y,Z Vertex 1 {m}
  -26.8857142857143, -29.26, 0,           !- X,Y,Z Vertex 2 {m}
  -21.5085714285714, -29.26, 0,           !- X,Y,Z Vertex 3 {m}
  -21.5085714285714, -29.26, 1.34;        !- X,Y,Z Vertex 4 {m}

OS:Surface,
  {5dfe7be0-cccc-4762-80cb-51883c070c4a}, !- Handle
  Surface 12,                             !- Name
  Wall,                                   !- Surface Type
  ,                                       !- Construction Name
  {fd979e86-aa3f-478f-ba9d-7dd5934c574a}, !- Space Name
  Outdoors,                               !- Outside Boundary Condition
  ,                                       !- Outside Boundary Condition Object
  SunExposed,                             !- Sun Exposure
  WindExposed,                            !- Wind Exposure
  ,                                       !- View Factor to Ground
  ,                                       !- Number of Vertices
  -32.2628571428571, -29.26, 1.34,        !- X,Y,Z Vertex 1 {m}
  -32.2628571428571, -29.26, 0,           !- X,Y,Z Vertex 2 {m}
  -26.8857142857143, -29.26, 0,           !- X,Y,Z Vertex 3 {m}
  -26.8857142857143, -29.26, 1.34;        !- X,Y,Z Vertex 4 {m}

OS:Surface,
  {33a996b2-6b55-41c9-a25e-ab19cc954868}, !- Handle
  Surface 13,                             !- Name
  Wall,                                   !- Surface Type
  ,                                       !- Construction Name
  {fd979e86-aa3f-478f-ba9d-7dd5934c574a}, !- Space Name
  Outdoors,                               !- Outside Boundary Condition
  ,                                       !- Outside Boundary Condition Object
  SunExposed,                             !- Sun Exposure
  WindExposed,                            !- Wind Exposure
  ,                                       !- View Factor to Ground
  ,                                       !- Number of Vertices
  -37.64, -29.26, 1.34,                   !- X,Y,Z Vertex 1 {m}
  -37.64, -29.26, 0,                      !- X,Y,Z Vertex 2 {m}
  -32.2628571428571, -29.26, 0,           !- X,Y,Z Vertex 3 {m}
  -32.2628571428571, -29.26, 1.34;        !- X,Y,Z Vertex 4 {m}

OS:Surface,
  {3d326d79-0e46-45ae-af82-7bd694bc2475}, !- Handle
  Surface 14,                             !- Name
  Wall,                                   !- Surface Type
  ,                                       !- Construction Name
  {fd979e86-aa3f-478f-ba9d-7dd5934c574a}, !- Space Name
  Outdoors,                               !- Outside Boundary Condition
  ,                                       !- Outside Boundary Condition Object
  SunExposed,                             !- Sun Exposure
  WindExposed,                            !- Wind Exposure
  ,                                       !- View Factor to Ground
  ,                                       !- Number of Vertices
  -37.64, -34.58, 1.34,                   !- X,Y,Z Vertex 1 {m}
  -37.64, -34.58, 0,                      !- X,Y,Z Vertex 2 {m}
  -37.64, -29.26, 0,                      !- X,Y,Z Vertex 3 {m}
  -37.64, -29.26, 1.34;                   !- X,Y,Z Vertex 4 {m}

OS:Surface,
  {bb02a997-659c-4765-b67e-bbf532e33eac}, !- Handle
  Surface 15,                             !- Name
  Wall,                                   !- Surface Type
  ,                                       !- Construction Name
  {fd979e86-aa3f-478f-ba9d-7dd5934c574a}, !- Space Name
  Outdoors,                               !- Outside Boundary Condition
  ,                                       !- Outside Boundary Condition Object
  SunExposed,                             !- Sun Exposure
  WindExposed,                            !- Wind Exposure
  ,                                       !- View Factor to Ground
  ,                                       !- Number of Vertices
  -37.64, -39.9, 1.34,                    !- X,Y,Z Vertex 1 {m}
  -37.64, -39.9, 0,                       !- X,Y,Z Vertex 2 {m}
  -37.64, -34.58, 0,                      !- X,Y,Z Vertex 3 {m}
  -37.64, -34.58, 1.34;                   !- X,Y,Z Vertex 4 {m}

OS:Surface,
  {3f5307f6-d1a2-4b7d-8cfd-7c15fb3e0829}, !- Handle
  Surface 16,                             !- Name
  Wall,                                   !- Surface Type
  ,                                       !- Construction Name
  {fd979e86-aa3f-478f-ba9d-7dd5934c574a}, !- Space Name
  Outdoors,                               !- Outside Boundary Condition
  ,                                       !- Outside Boundary Condition Object
  SunExposed,                             !- Sun Exposure
  WindExposed,                            !- Wind Exposure
  ,                                       !- View Factor to Ground
  ,                                       !- Number of Vertices
  -37.64, -45.22, 1.34,                   !- X,Y,Z Vertex 1 {m}
  -37.64, -45.22, 0,                      !- X,Y,Z Vertex 2 {m}
  -37.64, -39.9, 0,                       !- X,Y,Z Vertex 3 {m}
  -37.64, -39.9, 1.34;                    !- X,Y,Z Vertex 4 {m}

OS:Surface,
  {bd0a79f7-0762-4708-90ec-d4118a185bc6}, !- Handle
  Surface 17,                             !- Name
  Wall,                                   !- Surface Type
  ,                                       !- Construction Name
  {fd979e86-aa3f-478f-ba9d-7dd5934c574a}, !- Space Name
  Outdoors,                               !- Outside Boundary Condition
  ,                                       !- Outside Boundary Condition Object
  SunExposed,                             !- Sun Exposure
  WindExposed,                            !- Wind Exposure
  ,                                       !- View Factor to Ground
  ,                                       !- Number of Vertices
  -37.64, -50.54, 1.34,                   !- X,Y,Z Vertex 1 {m}
  -37.64, -50.54, 0,                      !- X,Y,Z Vertex 2 {m}
  -37.64, -45.22, 0,                      !- X,Y,Z Vertex 3 {m}
  -37.64, -45.22, 1.34;                   !- X,Y,Z Vertex 4 {m}

OS:Surface,
  {d1c757f4-fc62-449d-a5b3-ec5f149a9d9d}, !- Handle
  Surface 18,                             !- Name
  Wall,                                   !- Surface Type
  ,                                       !- Construction Name
  {fd979e86-aa3f-478f-ba9d-7dd5934c574a}, !- Space Name
  Outdoors,                               !- Outside Boundary Condition
  ,                                       !- Outside Boundary Condition Object
  SunExposed,                             !- Sun Exposure
  WindExposed,                            !- Wind Exposure
  ,                                       !- View Factor to Ground
  ,                                       !- Number of Vertices
  -37.64, -55.86, 1.34,                   !- X,Y,Z Vertex 1 {m}
  -37.64, -55.86, 0,                      !- X,Y,Z Vertex 2 {m}
  -37.64, -50.54, 0,                      !- X,Y,Z Vertex 3 {m}
  -37.64, -50.54, 1.34;                   !- X,Y,Z Vertex 4 {m}

OS:Surface,
  {add8c38a-9f3e-427c-aa73-4655808f8faa}, !- Handle
  Surface 19,                             !- Name
  Wall,                                   !- Surface Type
  ,                                       !- Construction Name
  {fd979e86-aa3f-478f-ba9d-7dd5934c574a}, !- Space Name
  Outdoors,                               !- Outside Boundary Condition
  ,                                       !- Outside Boundary Condition Object
  SunExposed,                             !- Sun Exposure
  WindExposed,                            !- Wind Exposure
  ,                                       !- View Factor to Ground
  ,                                       !- Number of Vertices
  -37.64, -61.18, 1.34,                   !- X,Y,Z Vertex 1 {m}
  -37.64, -61.18, 0,                      !- X,Y,Z Vertex 2 {m}
  -37.64, -55.86, 0,                      !- X,Y,Z Vertex 3 {m}
  -37.64, -55.86, 1.34;                   !- X,Y,Z Vertex 4 {m}

OS:Surface,
  {371ff34d-b598-4995-88f5-efcc80a02fee}, !- Handle
  Surface 20,                             !- Name
  Wall,                                   !- Surface Type
  ,                                       !- Construction Name
  {fd979e86-aa3f-478f-ba9d-7dd5934c574a}, !- Space Name
  Outdoors,                               !- Outside Boundary Condition
  ,                                       !- Outside Boundary Condition Object
  SunExposed,                             !- Sun Exposure
  WindExposed,                            !- Wind Exposure
  ,                                       !- View Factor to Ground
  ,                                       !- Number of Vertices
  -37.64, -66.5, 1.34,                    !- X,Y,Z Vertex 1 {m}
  -37.64, -66.5, 0,                       !- X,Y,Z Vertex 2 {m}
  -37.64, -61.18, 0,                      !- X,Y,Z Vertex 3 {m}
  -37.64, -61.18, 1.34;                   !- X,Y,Z Vertex 4 {m}

OS:Surface,
  {47ab5f08-dfe4-471d-8cbc-e56af43aab35}, !- Handle
  Surface 21,                             !- Name
  Wall,                                   !- Surface Type
  ,                                       !- Construction Name
  {fd979e86-aa3f-478f-ba9d-7dd5934c574a}, !- Space Name
  Outdoors,                               !- Outside Boundary Condition
  ,                                       !- Outside Boundary Condition Object
  SunExposed,                             !- Sun Exposure
  WindExposed,                            !- Wind Exposure
  ,                                       !- View Factor to Ground
  ,                                       !- Number of Vertices
  -37.64, -71.82, 1.34,                   !- X,Y,Z Vertex 1 {m}
  -37.64, -71.82, 0,                      !- X,Y,Z Vertex 2 {m}
  -37.64, -66.5, 0,                       !- X,Y,Z Vertex 3 {m}
  -37.64, -66.5, 1.34;                    !- X,Y,Z Vertex 4 {m}

OS:Surface,
  {deebd2b7-3221-455a-adf6-e9b400b346ef}, !- Handle
  Surface 22,                             !- Name
  Wall,                                   !- Surface Type
  ,                                       !- Construction Name
  {fd979e86-aa3f-478f-ba9d-7dd5934c574a}, !- Space Name
  Outdoors,                               !- Outside Boundary Condition
  ,                                       !- Outside Boundary Condition Object
  SunExposed,                             !- Sun Exposure
  WindExposed,                            !- Wind Exposure
  ,                                       !- View Factor to Ground
  ,                                       !- Number of Vertices
  -37.64, -77.14, 1.34,                   !- X,Y,Z Vertex 1 {m}
  -37.64, -77.14, 0,                      !- X,Y,Z Vertex 2 {m}
  -37.64, -71.82, 0,                      !- X,Y,Z Vertex 3 {m}
  -37.64, -71.82, 1.34;                   !- X,Y,Z Vertex 4 {m}

OS:Surface,
  {0c3ef156-884f-4cc0-9d71-33c75783aefd}, !- Handle
  Surface 23,                             !- Name
  Wall,                                   !- Surface Type
  ,                                       !- Construction Name
  {fd979e86-aa3f-478f-ba9d-7dd5934c574a}, !- Space Name
  Outdoors,                               !- Outside Boundary Condition
  ,                                       !- Outside Boundary Condition Object
  SunExposed,                             !- Sun Exposure
  WindExposed,                            !- Wind Exposure
  ,                                       !- View Factor to Ground
  ,                                       !- Number of Vertices
  -37.64, -82.46, 1.34,                   !- X,Y,Z Vertex 1 {m}
  -37.64, -82.46, 0,                      !- X,Y,Z Vertex 2 {m}
  -37.64, -77.14, 0,                      !- X,Y,Z Vertex 3 {m}
  -37.64, -77.14, 1.34;                   !- X,Y,Z Vertex 4 {m}

OS:Surface,
  {bd482882-03e2-42c3-ad99-7593b8b3db4d}, !- Handle
  Surface 24,                             !- Name
  Wall,                                   !- Surface Type
  ,                                       !- Construction Name
  {fd979e86-aa3f-478f-ba9d-7dd5934c574a}, !- Space Name
  Outdoors,                               !- Outside Boundary Condition
  ,                                       !- Outside Boundary Condition Object
  SunExposed,                             !- Sun Exposure
  WindExposed,                            !- Wind Exposure
  ,                                       !- View Factor to Ground
  ,                                       !- Number of Vertices
  -37.64, -87.78, 1.34,                   !- X,Y,Z Vertex 1 {m}
  -37.64, -87.78, 0,                      !- X,Y,Z Vertex 2 {m}
  -37.64, -82.46, 0,                      !- X,Y,Z Vertex 3 {m}
  -37.64, -82.46, 1.34;                   !- X,Y,Z Vertex 4 {m}

OS:Surface,
  {98fe34f5-c02d-47db-bb5f-556b4a0b6167}, !- Handle
  Surface 25,                             !- Name
  Wall,                                   !- Surface Type
  ,                                       !- Construction Name
  {fd979e86-aa3f-478f-ba9d-7dd5934c574a}, !- Space Name
  Outdoors,                               !- Outside Boundary Condition
  ,                                       !- Outside Boundary Condition Object
  SunExposed,                             !- Sun Exposure