
Version,
  8.2;                                    !- Version Identifier

LifeCycleCost:Parameters,
  {ad04c59f-07e9-4f57-9d23-e3389833940c}, !- Name
  EndOfYear,                              !- Discounting Convention
  ConstantDollar,                         !- Inflation Approach
  0.03,                                   !- Real Discount Rate
  ,                                       !- Nominal Discount Rate
  ,                                       !- Inflation
  ,                                       !- Base Date Month
  2011,                                   !- Base Date Year
  ,                                       !- Service Date Month
  2011,                                   !- Service Date Year
  25,                                     !- Length of Study Period in Years
  ,                                       !- Tax rate
  None;                                   !- Depreciation Method

LifeCycleCost:UsePriceEscalation,
  U.S. Avg  Commercial-Electricity,       !- Name
  Electricity,                            !- Resource
  2011,                                   !- Escalation Start Year
  January,                                !- Escalation Start Month
  0.9838,                                 !- Year Escalation 1
  0.9730,                                 !- Year Escalation 2
  0.9632,                                 !- Year Escalation 3
  0.9611,                                 !- Year Escalation 4
  0.9571,                                 !- Year Escalation 5
  0.9553,                                 !- Year Escalation 6
  0.9539,                                 !- Year Escalation 7
  0.9521,                                 !- Year Escalation 8
  0.9546,                                 !- Year Escalation 9
  0.9550,                                 !- Year Escalation 10
  0.9553,                                 !- Year Escalation 11
  0.9564,                                 !- Year Escalation 12
  0.9575,                                 !- Year Escalation 13
  0.9596,                                 !- Year Escalation 14
  0.9618,                                 !- Year Escalation 15
  0.9614,                                 !- Year Escalation 16
  0.9618,                                 !- Year Escalation 17
  0.9618,                                 !- Year Escalation 18
  0.9593,                                 !- Year Escalation 19
  0.9589,                                 !- Year Escalation 20
  0.9607,                                 !- Year Escalation 21
  0.9625,                                 !- Year Escalation 22
  0.9650,                                 !- Year Escalation 23
  0.9708,                                 !- Year Escalation 24
  0.9751,                                 !- Year Escalation 25
  0.9762,                                 !- Year Escalation 26
  0.9766,                                 !- Year Escalation 27
  0.9766,                                 !- Year Escalation 28
  0.9769,                                 !- Year Escalation 29
  0.9773;                                 !- Year Escalation 30

LifeCycleCost:UsePriceEscalation,
  U.S. Avg  Commercial-Distillate Oil,    !- Name
  FuelOil#1,                              !- Resource
  2011,                                   !- Escalation Start Year
  January,                                !- Escalation Start Month
  0.9714,                                 !- Year Escalation 1
  0.9730,                                 !- Year Escalation 2
  0.9942,                                 !- Year Escalation 3
  1.0164,                                 !- Year Escalation 4
  1.0541,                                 !- Year Escalation 5
  1.0928,                                 !- Year Escalation 6
  1.1267,                                 !- Year Escalation 7
  1.1580,                                 !- Year Escalation 8
  1.1792,                                 !- Year Escalation 9
  1.1967,                                 !- Year Escalation 10
  1.2200,                                 !- Year Escalation 11
  1.2333,                                 !- Year Escalation 12
  1.2566,                                 !- Year Escalation 13
  1.2709,                                 !- Year Escalation 14
  1.2826,                                 !- Year Escalation 15
  1.2985,                                 !- Year Escalation 16
  1.3102,                                 !- Year Escalation 17
  1.3250,                                 !- Year Escalation 18
  1.3261,                                 !- Year Escalation 19
  1.3282,                                 !- Year Escalation 20
  1.3324,                                 !- Year Escalation 21
  1.3356,                                 !- Year Escalation 22
  1.3431,                                 !- Year Escalation 23
  1.3510,                                 !- Year Escalation 24
  1.3568,                                 !- Year Escalation 25
  1.3606,                                 !- Year Escalation 26
  1.3637,                                 !- Year Escalation 27
  1.3674,                                 !- Year Escalation 28
  1.3706,                                 !- Year Escalation 29
  1.3743;                                 !- Year Escalation 30

LifeCycleCost:UsePriceEscalation,
  U.S. Avg  Commercial-Residual Oil,      !- Name
  FuelOil#2,                              !- Resource
  2011,                                   !- Escalation Start Year
  January,                                !- Escalation Start Month
  0.8469,                                 !- Year Escalation 1
  0.8257,                                 !- Year Escalation 2
  0.8681,                                 !- Year Escalation 3
  0.8988,                                 !- Year Escalation 4
  0.9289,                                 !- Year Escalation 5
  0.9604,                                 !- Year Escalation 6
  0.9897,                                 !- Year Escalation 7
  1.0075,                                 !- Year Escalation 8
  1.0314,                                 !- Year Escalation 9
  1.0554,                                 !- Year Escalation 10
  1.0861,                                 !- Year Escalation 11
  1.1278,                                 !- Year Escalation 12
  1.1497,                                 !- Year Escalation 13
  1.1620,                                 !- Year Escalation 14
  1.1743,                                 !- Year Escalation 15
  1.1852,                                 !- Year Escalation 16
  1.1948,                                 !- Year Escalation 17
  1.2037,                                 !- Year Escalation 18
  1.2071,                                 !- Year Escalation 19
  1.2119,                                 !- Year Escalation 20
  1.2139,                                 !- Year Escalation 21
  1.2194,                                 !- Year Escalation 22
  1.2276,                                 !- Year Escalation 23
  1.2365,                                 !- Year Escalation 24
  1.2420,                                 !- Year Escalation 25
  1.2461,                                 !- Year Escalation 26
  1.2509,                                 !- Year Escalation 27
  1.2550,                                 !- Year Escalation 28
  1.2591,                                 !- Year Escalation 29
  1.2638;                                 !- Year Escalation 30

LifeCycleCost:UsePriceEscalation,
  U.S. Avg  Commercial-Natural gas,       !- Name
  NaturalGas,                             !- Resource
  2011,                                   !- Escalation Start Year
  January,                                !- Escalation Start Month
  0.9823,                                 !- Year Escalation 1
  0.9557,                                 !- Year Escalation 2
  0.9279,                                 !- Year Escalation 3
  0.9257,                                 !- Year Escalation 4
  0.9346,                                 !- Year Escalation 5
  0.9412,                                 !- Year Escalation 6
  0.9512,                                 !- Year Escalation 7
  0.9645,                                 !- Year Escalation 8
  0.9856,                                 !- Year Escalation 9
  1.0067,                                 !- Year Escalation 10
  1.0222,                                 !- Year Escalation 11
  1.0410,                                 !- Year Escalation 12
  1.0610,                                 !- Year Escalation 13
  1.0787,                                 !- Year Escalation 14
  1.0942,                                 !- Year Escalation 15
  1.1098,                                 !- Year Escalation 16
  1.1220,                                 !- Year Escalation 17
  1.1308,                                 !- Year Escalation 18
  1.1386,                                 !- Year Escalation 19
  1.1486,                                 !- Year Escalation 20
  1.1619,                                 !- Year Escalation 21
  1.1763,                                 !- Year Escalation 22
  1.1918,                                 !- Year Escalation 23
  1.2118,                                 !- Year Escalation 24
  1.2284,                                 !- Year Escalation 25
  1.2439,                                 !- Year Escalation 26
  1.2605,                                 !- Year Escalation 27
  1.2772,                                 !- Year Escalation 28
  1.2938,                                 !- Year Escalation 29
  1.3115;                                 !- Year Escalation 30

LifeCycleCost:UsePriceEscalation,
  U.S. Avg  Commercial-Coal,              !- Name
  Coal,                                   !- Resource
  2011,                                   !- Escalation Start Year
  January,                                !- Escalation Start Month
  0.9970,                                 !- Year Escalation 1
  1.0089,                                 !- Year Escalation 2
  1.0089,                                 !- Year Escalation 3
  0.9941,                                 !- Year Escalation 4
  0.9941,                                 !- Year Escalation 5
  1.0000,                                 !- Year Escalation 6
  1.0030,                                 !- Year Escalation 7
  1.0059,                                 !- Year Escalation 8
  1.0089,                                 !- Year Escalation 9
  1.0119,                                 !- Year Escalation 10
  1.0148,                                 !- Year Escalation 11
  1.0178,                                 !- Year Escalation 12
  1.0208,                                 !- Year Escalation 13
  1.0267,                                 !- Year Escalation 14
  1.0297,                                 !- Year Escalation 15
  1.0356,                                 !- Year Escalation 16
  1.0415,                                 !- Year Escalation 17
  1.0534,                                 !- Year Escalation 18
  1.0564,                                 !- Year Escalation 19
  1.0593,                                 !- Year Escalation 20
  1.0653,                                 !- Year Escalation 21
  1.0712,                                 !- Year Escalation 22
  1.0742,                                 !- Year Escalation 23
  1.0801,                                 !- Year Escalation 24
  1.0831,                                 !- Year Escalation 25
  1.0831,                                 !- Year Escalation 26
  1.0861,                                 !- Year Escalation 27
  1.0890,                                 !- Year Escalation 28
  1.0920,                                 !- Year Escalation 29
  1.0950;                                 !- Year Escalation 30

Building,
  Building 1,                             !- Name
  0,                                      !- North Axis {deg}
  ,                                       !- Terrain
  ,                                       !- Loads Convergence Tolerance Value
  ,                                       !- Temperature Convergence Tolerance Value {deltaC}
  ,                                       !- Solar Distribution
  ,                                       !- Maximum Number of Warmup Days
  ;                                       !- Minimum Number of Warmup Days

Zone,
  Thermal Zone 1,                         !- Name
  -0,                                     !- Direction of Relative North {deg}
  28.23,                                  !- X Origin {m}
  58.52,                                  !- Y Origin {m}
  9.34,                                   !- Z Origin {m}
  ,                                       !- Type
  ,                                       !- Multiplier
  ,                                       !- Ceiling Height {m}
  ,                                       !- Volume {m3}
  ,                                       !- Floor Area {m2}
  ,                                       !- Zone Inside Convection Algorithm
  ;                                       !- Zone Outside Convection Algorithm

BuildingSurface:Detailed,
  Surface 632,                            !- Name
  Wall,                                   !- Surface Type
  ASHRAE 90.1-2004 ExtWall Mass ClimateZone 6, !- Construction Name
  Thermal Zone 1,                         !- Zone Name
  Outdoors,                               !- Outside Boundary Condition
  ,                                       !- Outside Boundary Condition Object
  SunExposed,                             !- Sun Exposure
  WindExposed,                            !- Wind Exposure
  ,                                       !- View Factor to Ground
  ,                                       !- Number of Vertices
  0, -5.852, 1.32,                        !- X,Y,Z Vertex 1 {m}
  0, -5.852, 0,                           !- X,Y,Z Vertex 2 {m}
  0, 0, 0,                                !- X,Y,Z Vertex 3 {m}
  0, 0, 1.32;                             !- X,Y,Z Vertex 4 {m}

FenestrationSurface:Detailed,
  Sub Surface 234,                        !- Name
  Window,                                 !- Surface Type
  ASHRAE 90.1-2004 ExtWindow ClimateZone 4-6, !- Construction Name
  Surface 632,                            !- Building Surface Name
  ,                                       !- Outside Boundary Condition Object
  ,                                       !- View Factor to Ground
  ,                                       !- Shading Control Name
  ,                                       !- Frame and Divider Name
  ,                                       !- Multiplier
  ,                                       !- Number of Vertices
  0, -5.8266, 1.28039434599738,           !- X,Y,Z Vertex 1 {m}
  0, -5.8266, 0.0254,                     !- X,Y,Z Vertex 2 {m}
  0, -0.0253999999999994, 0.0254,         !- X,Y,Z Vertex 3 {m}
  0, -0.0253999999999994, 1.28039434599738; !- X,Y,Z Vertex 4 {m}

BuildingSurface:Detailed,
  Surface 633,                            !- Name
  Wall,                                   !- Surface Type
  ASHRAE 90.1-2004 ExtWall Mass ClimateZone 6, !- Construction Name
  Thermal Zone 1,                         !- Zone Name
  Outdoors,                               !- Outside Boundary Condition
  ,                                       !- Outside Boundary Condition Object
  SunExposed,                             !- Sun Exposure
  WindExposed,                            !- Wind Exposure
  ,                                       !- View Factor to Ground
  ,                                       !- Number of Vertices
  0, -11.704, 1.32,                       !- X,Y,Z Vertex 1 {m}
  0, -11.704, 0,                          !- X,Y,Z Vertex 2 {m}
  0, -5.852, 0,                           !- X,Y,Z Vertex 3 {m}
  0, -5.852, 1.32;                        !- X,Y,Z Vertex 4 {m}

FenestrationSurface:Detailed,
  Sub Surface 195,                        !- Name
  Window,                                 !- Surface Type
  ASHRAE 90.1-2004 ExtWindow ClimateZone 4-6, !- Construction Name
  Surface 633,                            !- Building Surface Name
  ,                                       !- Outside Boundary Condition Object
  ,                                       !- View Factor to Ground
  ,                                       !- Shading Control Name
  ,                                       !- Frame and Divider Name
  ,                                       !- Multiplier
  ,                                       !- Number of Vertices
  0, -11.6786, 1.28039434599738,          !- X,Y,Z Vertex 1 {m}
  0, -11.6786, 0.0254,                    !- X,Y,Z Vertex 2 {m}
  0, -5.8774, 0.0254,                     !- X,Y,Z Vertex 3 {m}
  0, -5.8774, 1.28039434599738;           !- X,Y,Z Vertex 4 {m}

BuildingSurface:Detailed,
  Surface 634,                            !- Name
  Wall,                                   !- Surface Type
  ASHRAE 90.1-2004 ExtWall Mass ClimateZone 6, !- Construction Name
  Thermal Zone 1,                         !- Zone Name
  Outdoors,                               !- Outside Boundary Condition
  ,                                       !- Outside Boundary Condition Object
  SunExposed,                             !- Sun Exposure
  WindExposed,                            !- Wind Exposure
  ,                                       !- View Factor to Ground
  ,                                       !- Number of Vertices
  0, -17.556, 1.32,                       !- X,Y,Z Vertex 1 {m}
  0, -17.556, 0,                          !- X,Y,Z Vertex 2 {m}
  0, -11.704, 0,                          !- X,Y,Z Vertex 3 {m}
  0, -11.704, 1.32;                       !- X,Y,Z Vertex 4 {m}

FenestrationSurface:Detailed,
  Sub Surface 213,                        !- Name
  Window,                                 !- Surface Type
  ASHRAE 90.1-2004 ExtWindow ClimateZone 4-6, !- Construction Name
  Surface 634,                            !- Building Surface Name
  ,                                       !- Outside Boundary Condition Object
  ,                                       !- View Factor to Ground
  ,                                       !- Shading Control Name
  ,                                       !- Frame and Divider Name
  ,                                       !- Multiplier
  ,                                       !- Number of Vertices
  0, -17.5306, 1.28039434599738,          !- X,Y,Z Vertex 1 {m}
  0, -17.5306, 0.0254,                    !- X,Y,Z Vertex 2 {m}
  0, -11.7294, 0.0254,                    !- X,Y,Z Vertex 3 {m}
  0, -11.7294, 1.28039434599738;          !- X,Y,Z Vertex 4 {m}

BuildingSurface:Detailed,
  Surface 635,                            !- Name
  Wall,                                   !- Surface Type
  ASHRAE 90.1-2004 ExtWall Mass ClimateZone 6, !- Construction Name
  Thermal Zone 1,                         !- Zone Name
  Outdoors,                               !- Outside Boundary Condition
  ,                                       !- Outside Boundary Condition Object
  SunExposed,                             !- Sun Exposure
  WindExposed,                            !- Wind Exposure
  ,                                       !- View Factor to Ground
  ,                                       !- Number of Vertices
  0, -23.408, 1.32,                       !- X,Y,Z Vertex 1 {m}
  0, -23.408, 0,                          !- X,Y,Z Vertex 2 {m}
  0, -17.556, 0,                          !- X,Y,Z Vertex 3 {m}
  0, -17.556, 1.32;                       !- X,Y,Z Vertex 4 {m}

FenestrationSurface:Detailed,
  Sub Surface 253,                        !- Name
  Window,                                 !- Surface Type
  ASHRAE 90.1-2004 ExtWindow ClimateZone 4-6, !- Construction Name
  Surface 635,                            !- Building Surface Name
  ,                                       !- Outside Boundary Condition Object
  ,                                       !- View Factor to Ground
  ,                                       !- Shading Control Name
  ,                                       !- Frame and Divider Name
  ,                                       !- Multiplier
  ,                                       !- Number of Vertices
  0, -23.3826, 1.28039434599738,          !- X,Y,Z Vertex 1 {m}
  0, -23.3826, 0.0254,                    !- X,Y,Z Vertex 2 {m}
  0, -17.5814, 0.0254,                    !- X,Y,Z Vertex 3 {m}
  0, -17.5814, 1.28039434599738;          !- X,Y,Z Vertex 4 {m}

BuildingSurface:Detailed,
  Surface 636,                            !- Name
  Wall,                                   !- Surface Type
  ASHRAE 90.1-2004 ExtWall Mass ClimateZone 6, !- Construction Name
  Thermal Zone 1,                         !- Zone Name
  Outdoors,                               !- Outside Boundary Condition
  ,                                       !- Outside Boundary Condition Object
  SunExposed,                             !- Sun Exposure
  WindExposed,                            !- Wind Exposure
  ,                                       !- View Factor to Ground
  ,                                       !- Number of Vertices
  0, -29.26, 1.32,                        !- X,Y,Z Vertex 1 {m}
  0, -29.26, 0,                           !- X,Y,Z Vertex 2 {m}
  0, -23.408, 0,                          !- X,Y,Z Vertex 3 {m}
  0, -23.408, 1.32;                       !- X,Y,Z Vertex 4 {m}

FenestrationSurface:Detailed,
  Sub Surface 263,                        !- Name
  Window,                                 !- Surface Type
  ASHRAE 90.1-2004 ExtWindow ClimateZone 4-6, !- Construction Name
  Surface 636,                            !- Building Surface Name
  ,                                       !- Outside Boundary Condition Object
  ,                                       !- View Factor to Ground
  ,                                       !- Shading Control Name
  ,                                       !- Frame and Divider Name
  ,                                       !- Multiplier
  ,                                       !- Number of Vertices
  0, -29.2346, 1.28039434599738,          !- X,Y,Z Vertex 1 {m}
  0, -29.2346, 0.0254,                    !- X,Y,Z Vertex 2 {m}
  0, -23.4334, 0.0254,                    !- X,Y,Z Vertex 3 {m}
  0, -23.4334, 1.28039434599738;          !- X,Y,Z Vertex 4 {m}

BuildingSurface:Detailed,
  Surface 637,                            !- Name
  Wall,                                   !- Surface Type
  ASHRAE 90.1-2004 ExtWall Mass ClimateZone 6, !- Construction Name
  Thermal Zone 1,                         !- Zone Name
  Outdoors,                               !- Outside Boundary Condition
  ,                                       !- Outside Boundary Condition Object
  SunExposed,                             !- Sun Exposure
  WindExposed,                            !- Wind Exposure
  ,                                       !- View Factor to Ground
  ,                                       !- Number of Vertices
  -5.3771428571429, -29.26, 1.32,         !- X,Y,Z Vertex 1 {m}
  -5.3771428571429, -29.26, 0,            !- X,Y,Z Vertex 2 {m}
  0, -29.26, 0,                           !- X,Y,Z Vertex 3 {m}
  0, -29.26, 1.32;                        !- X,Y,Z Vertex 4 {m}

FenestrationSurface:Detailed,
  Sub Surface 183,                        !- Name
  Window,                                 !- Surface Type
  ASHRAE 90.1-2004 ExtWindow ClimateZone 4-6, !- Construction Name
  Surface 637,                            !- Building Surface Name
  ,                                       !- Outside Boundary Condition Object
  ,                                       !- View Factor to Ground
  ,                                       !- Shading Control Name
  ,                                       !- Frame and Divider Name
  ,                                       !- Multiplier
  ,                                       !- Number of Vertices
  -5.3517428571429, -29.26, 1.28136560491787, !- X,Y,Z Vertex 1 {m}
  -5.3517428571429, -29.26, 0.0254,       !- X,Y,Z Vertex 2 {m}
  -0.0253999999999994, -29.26, 0.0254,    !- X,Y,Z Vertex 3 {m}
  -0.0253999999999994, -29.26, 1.28136560491787; !- X,Y,Z Vertex 4 {m}

BuildingSurface:Detailed,
  Surface 638,                            !- Name
  Wall,                                   !- Surface Type
  ASHRAE 90.1-2004 ExtWall Mass ClimateZone 6, !- Construction Name
  Thermal Zone 1,                         !- Zone Name
  Outdoors,                               !- Outside Boundary Condition
  ,                                       !- Outside Boundary Condition Object
  SunExposed,                             !- Sun Exposure
  WindExposed,                            !- Wind Exposure
  ,                                       !- View Factor to Ground
  ,                                       !- Number of Vertices
  -10.7542857142857, -29.26, 1.32,        !- X,Y,Z Vertex 1 {m}
  -10.7542857142857, -29.26, 0,           !- X,Y,Z Vertex 2 {m}
  -5.3771428571429, -29.26, 0,            !- X,Y,Z Vertex 3 {m}
  -5.3771428571429, -29.26, 1.32;         !- X,Y,Z Vertex 4 {m}

FenestrationSurface:Detailed,
  Sub Surface 198,                        !- Name
  Window,                                 !- Surface Type
  ASHRAE 90.1-2004 ExtWindow ClimateZone 4-6, !- Construction Name
  Surface 638,                            !- Building Surface Name
  ,                                       !- Outside Boundary Condition Object
  ,                                       !- View Factor to Ground
  ,                                       !- Shading Control Name
  ,                                       !- Frame and Divider Name
  ,                                       !- Multiplier
  ,                                       !- Number of Vertices
  -10.7288857142857, -29.26, 1.28136560491787, !- X,Y,Z Vertex 1 {m}
  -10.7288857142857, -29.26, 0.0254,      !- X,Y,Z Vertex 2 {m}
  -5.4025428571429, -29.26, 0.0254,       !- X,Y,Z Vertex 3 {m}
  -5.4025428571429, -29.26, 1.28136560491787; !- X,Y,Z Vertex 4 {m}

BuildingSurface:Detailed,
  Surface 639,                            !- Name
  Wall,                                   !- Surface Type
  ASHRAE 90.1-2004 ExtWall Mass ClimateZone 6, !- Construction Name
  Thermal Zone 1,                         !- Zone Name
  Outdoors,                               !- Outside Boundary Condition
  ,                                       !- Outside Boundary Condition Object
  SunExposed,                             !- Sun Exposure
  WindExposed,                            !- Wind Exposure
  ,                                       !- View Factor to Ground
  ,                                       !- Number of Vertices
  -16.1314285714286, -29.26, 1.32,        !- X,Y,Z Vertex 1 {m}
  -16.1314285714286, -29.26, 0,           !- X,Y,Z Vertex 2 {m}
  -10.7542857142857, -29.26, 0,           !- X,Y,Z Vertex 3 {m}
  -10.7542857142857, -29.26, 1.32;        !- X,Y,Z Vertex 4 {m}

FenestrationSurface:Detailed,
  Sub Surface 191,                        !- Name
  Window,                                 !- Surface Type
  ASHRAE 90.1-2004 ExtWindow ClimateZone 4-6, !- Construction Name
  Surface 639,                            !- Building Surface Name
  ,                                       !- Outside Boundary Condition Object
  ,                                       !- View Factor to Ground
  ,                                       !- Shading Control Name
  ,                                       !- Frame and Divider Name
  ,                                       !- Multiplier
  ,                                       !- Number of Vertices
  -16.1060285714286, -29.26, 1.28136560491787, !- X,Y,Z Vertex 1 {m}
  -16.1060285714286, -29.26, 0.0254,      !- X,Y,Z Vertex 2 {m}
  -10.7796857142857, -29.26, 0.0254,      !- X,Y,Z Vertex 3 {m}
  -10.7796857142857, -29.26, 1.28136560491787; !- X,Y,Z Vertex 4 {m}

BuildingSurface:Detailed,
  Surface 640,                            !- Name
  Wall,                                   !- Surface Type
  ASHRAE 90.1-2004 ExtWall Mass ClimateZone 6, !- Construction Name
  Thermal Zone 1,                         !- Zone Name
  Outdoors,                               !- Outside Boundary Condition
  ,                                       !- Outside Boundary Condition Object
  SunExposed,                             !- Sun Exposure
  WindExposed,                            !- Wind Exposure
  ,                                       !- View Factor to Ground
  ,                                       !- Number of Vertices
  -21.5085714285714, -29.26, 1.32,        !- X,Y,Z Vertex 1 {m}
  -21.5085714285714, -29.26, 0,           !- X,Y,Z Vertex 2 {m}
  -16.1314285714286, -29.26, 0,           !- X,Y,Z Vertex 3 {m}
  -16.1314285714286, -29.26, 1.32;        !- X,Y,Z Vertex 4 {m}

FenestrationSurface:Detailed,
  Sub Surface 227,                        !- Name
  Window,                                 !- Surface Type
  ASHRAE 90.1-2004 ExtWindow ClimateZone 4-6, !- Construction Name
  Surface 640,                            !- Building Surface Name
  ,                                       !- Outside Boundary Condition Object
  ,                                       !- View Factor to Ground
  ,                                       !- Shading Control Name
  ,                                       !- Frame and Divider Name
  ,                                       !- Multiplier
  ,                                       !- Number of Vertices
  -21.4831714285714, -29.26, 1.28136560491787, !- X,Y,Z Vertex 1 {m}
  -21.4831714285714, -29.26, 0.0254,      !- X,Y,Z Vertex 2 {m}
  -16.1568285714286, -29.26, 0.0254,      !- X,Y,Z Vertex 3 {m}
  -16.1568285714286, -29.26, 1.28136560491787; !- X,Y,Z Vertex 4 {m}

BuildingSurface:Detailed,
  Surface 641,                            !- Name
  Wall,                                   !- Surface Type
  ASHRAE 90.1-2004 ExtWall Mass ClimateZone 6, !- Construction Name